
OS:Version,
  {673eccfd-1bb8-48e8-b200-cf86240745eb}, ! Handle
  0.9.3;                                  ! Version Identifier

OS:SizingPeriod:DesignDay,
  {6bba5c9a-19af-496c-b86d-c32c5889868c}, ! Handle
  Aberdeen Regional Arpt Ann Hum_n 99% Condns DP=>MCDB, ! Name
  -23.9,                                  ! Maximum Dry-Bulb Temperature {C}
  0,                                      ! Daily Dry-Bulb Temperature Range {deltaC}
  -28.1,                                  ! Humidity Indicating Conditions at Maximum Dry-Bulb {BasedOnField A3}
  96634,                                  ! Barometric Pressure {Pa}
  3.3,                                    ! Wind Speed {m/s}
  240,                                    ! Wind Direction {deg}
  0,                                      ! Sky Clearness
  0,                                      ! Rain Indicator
  0,                                      ! Snow Indicator
  21,                                     ! Day of Month
  1,                                      ! Month
  WinterDesignDay,                        ! Day Type
  0,                                      ! Daylight Saving Time Indicator
  Dewpoint,                               ! Humidity Indicating Type
  ,                                       ! Humidity Indicating Day Schedule Name
  DefaultMultipliers,                     ! Dry-Bulb Temperature Range Modifier Type
  ,                                       ! Dry-Bulb Temperature Range Modifier Schedule Name
  ASHRAEClearSky;                         ! Solar Model Indicator

OS:ComponentData,
  {01306a28-99ce-48b2-a748-764573f8cca6}, ! Handle
  Component Data 1,                       ! Name
  {0d32bccb-61f8-4015-a198-3a372972f77b}, ! UUID
  {e680880a-4154-4e27-afe7-fad70b6aa194}, ! Version UUID
  1366310384,                             ! Creation Timestamp
  1366310384,                             ! Version Timestamp
  {6bba5c9a-19af-496c-b86d-c32c5889868c}; ! Name of Object 1

