
OS:Version,
  {68c5af32-a38c-4a9b-93a2-be189f2f50f0}, ! Handle
  0.9.3;                                  ! Version Identifier

OS:SizingPeriod:DesignDay,
  {5b348b8d-81f8-4731-9610-045f45803ba6}, ! Handle
  Fairmont Muni Awos Ann Clg .4% Condns Enth=>MDB, ! Name
  29.4,                                   ! Maximum Dry-Bulb Temperature {C}
  9.9,                                    ! Daily Dry-Bulb Temperature Range {deltaC}
  78800,                                  ! Humidity Indicating Conditions at Maximum Dry-Bulb {BasedOnField A3}
  97144,                                  ! Barometric Pressure {Pa}
  7.2,                                    ! Wind Speed {m/s}
  190,                                    ! Wind Direction {deg}
  0,                                      ! Sky Clearness
  0,                                      ! Rain Indicator
  0,                                      ! Snow Indicator
  21,                                     ! Day of Month
  7,                                      ! Month
  SummerDesignDay,                        ! Day Type
  0,                                      ! Daylight Saving Time Indicator
  Enthalpy,                               ! Humidity Indicating Type
  ,                                       ! Humidity Indicating Day Schedule Name
  DefaultMultipliers,                     ! Dry-Bulb Temperature Range Modifier Type
  ,                                       ! Dry-Bulb Temperature Range Modifier Schedule Name
  ASHRAETau,                              ! Solar Model Indicator
  ,                                       ! Beam Solar Day Schedule Name
  ,                                       ! Diffuse Solar Day Schedule Name
  0.404,                                  ! ASHRAE Taub {dimensionless}
  2.231;                                  ! ASHRAE Taud {dimensionless}

OS:ComponentData,
  {da8a7749-f351-4482-b158-43a0e0a86982}, ! Handle
  Component Data 1,                       ! Name
  {a0d101cd-0890-4f00-9c7c-221dd54896a2}, ! UUID
  {df51b52f-8f89-4ec4-a85c-d2fa3afdbacc}, ! Version UUID
  1366308226,                             ! Creation Timestamp
  1366308226,                             ! Version Timestamp
  {5b348b8d-81f8-4731-9610-045f45803ba6}; ! Name of Object 1

