
OS:Version,
  {0c9c3b87-97e2-4eb4-856a-35aee69b4dd8}, ! Handle
  0.9.3;                                  ! Version Identifier

OS:SizingPeriod:DesignDay,
  {2bd60589-b1e3-49c6-bc90-fc1ce265eb91}, ! Handle
  Louisville Standiford Field Ann Clg .4% Condns DP=>MDB, ! Name
  29.3,                                   ! Maximum Dry-Bulb Temperature {C}
  9.7,                                    ! Daily Dry-Bulb Temperature Range {deltaC}
  24.3,                                   ! Humidity Indicating Conditions at Maximum Dry-Bulb {BasedOnField A3}
  99571,                                  ! Barometric Pressure {Pa}
  4.2,                                    ! Wind Speed {m/s}
  240,                                    ! Wind Direction {deg}
  0,                                      ! Sky Clearness
  0,                                      ! Rain Indicator
  0,                                      ! Snow Indicator
  21,                                     ! Day of Month
  7,                                      ! Month
  SummerDesignDay,                        ! Day Type
  0,                                      ! Daylight Saving Time Indicator
  Dewpoint,                               ! Humidity Indicating Type
  ,                                       ! Humidity Indicating Day Schedule Name
  DefaultMultipliers,                     ! Dry-Bulb Temperature Range Modifier Type
  ,                                       ! Dry-Bulb Temperature Range Modifier Schedule Name
  ASHRAETau,                              ! Solar Model Indicator
  ,                                       ! Beam Solar Day Schedule Name
  ,                                       ! Diffuse Solar Day Schedule Name
  0.51,                                   ! ASHRAE Taub {dimensionless}
  1.872;                                  ! ASHRAE Taud {dimensionless}

OS:ComponentData,
  {c7301ee7-dee4-44ed-9b3e-8e36ef9a7681}, ! Handle
  Component Data 1,                       ! Name
  {bc57a32a-3971-429c-9114-0b5c50de7455}, ! UUID
  {089c5981-9e81-42c8-aeee-6f1a0efb7aee}, ! Version UUID
  1366307671,                             ! Creation Timestamp
  1366307671,                             ! Version Timestamp
  {2bd60589-b1e3-49c6-bc90-fc1ce265eb91}; ! Name of Object 1

