
OS:Version,
  {4d06fc84-f44e-4d8d-8c68-8eef803a3c66}, ! Handle
  0.9.3;                                  ! Version Identifier

OS:SizingPeriod:DesignDay,
  {89013386-1bfe-4440-9757-37398312b731}, ! Handle
  Anvik Ann Clg 1% Condns Enth=>MDB,      ! Name
  20,                                     ! Maximum Dry-Bulb Temperature {C}
  8.2,                                    ! Daily Dry-Bulb Temperature Range {deltaC}
  39400,                                  ! Humidity Indicating Conditions at Maximum Dry-Bulb {BasedOnField A3}
  100141,                                 ! Barometric Pressure {Pa}
  2,                                      ! Wind Speed {m/s}
  10,                                     ! Wind Direction {deg}
  0,                                      ! Sky Clearness
  0,                                      ! Rain Indicator
  0,                                      ! Snow Indicator
  21,                                     ! Day of Month
  7,                                      ! Month
  SummerDesignDay,                        ! Day Type
  0,                                      ! Daylight Saving Time Indicator
  Enthalpy,                               ! Humidity Indicating Type
  ,                                       ! Humidity Indicating Day Schedule Name
  DefaultMultipliers,                     ! Dry-Bulb Temperature Range Modifier Type
  ,                                       ! Dry-Bulb Temperature Range Modifier Schedule Name
  ASHRAETau,                              ! Solar Model Indicator
  ,                                       ! Beam Solar Day Schedule Name
  ,                                       ! Diffuse Solar Day Schedule Name
  0.369,                                  ! ASHRAE Taub {dimensionless}
  2.27;                                   ! ASHRAE Taud {dimensionless}

OS:ComponentData,
  {202a13cb-445c-469c-be30-c9a9b48bb0e4}, ! Handle
  Component Data 1,                       ! Name
  {29d1eed9-b0dd-4eac-831b-f1a213470865}, ! UUID
  {166e3aa7-1def-40c3-b109-66c043828f97}, ! Version UUID
  1366304732,                             ! Creation Timestamp
  1366304732,                             ! Version Timestamp
  {89013386-1bfe-4440-9757-37398312b731}; ! Name of Object 1

