
OS:Version,
  {1dacee96-3963-4089-a7ab-00067f34f42f}, ! Handle
  0.9.3;                                  ! Version Identifier

OS:SizingPeriod:DesignDay,
  {a2c67d70-4884-4661-9461-ef280d29c4e4}, ! Handle
  Chan Gurney Muni Ann Htg Wind 99% Condns WS=>MCDB, ! Name
  -10,                                    ! Maximum Dry-Bulb Temperature {C}
  0,                                      ! Daily Dry-Bulb Temperature Range {deltaC}
  -10,                                    ! Humidity Indicating Conditions at Maximum Dry-Bulb {BasedOnField A3}
  96519,                                  ! Barometric Pressure {Pa}
  15,                                     ! Wind Speed {m/s}
  310,                                    ! Wind Direction {deg}
  0,                                      ! Sky Clearness
  0,                                      ! Rain Indicator
  0,                                      ! Snow Indicator
  21,                                     ! Day of Month
  1,                                      ! Month
  WinterDesignDay,                        ! Day Type
  0,                                      ! Daylight Saving Time Indicator
  Wetbulb,                                ! Humidity Indicating Type
  ,                                       ! Humidity Indicating Day Schedule Name
  DefaultMultipliers,                     ! Dry-Bulb Temperature Range Modifier Type
  ,                                       ! Dry-Bulb Temperature Range Modifier Schedule Name
  ASHRAEClearSky;                         ! Solar Model Indicator

