
OS:Version,
  {6e2420b1-7e07-484e-8941-ae0d4b429467}, ! Handle
  0.9.3;                                  ! Version Identifier

OS:SizingPeriod:DesignDay,
  {7ebf2b01-7463-4f25-9131-2dd35384d5ff}, ! Handle
  Houston D W  Hooks Ann Clg 2% Condns WB=>MDB, ! Name
  30.7,                                   ! Maximum Dry-Bulb Temperature {C}
  10.4,                                   ! Daily Dry-Bulb Temperature Range {deltaC}
  26,                                     ! Humidity Indicating Conditions at Maximum Dry-Bulb {BasedOnField A3}
  100774,                                 ! Barometric Pressure {Pa}
  3.1,                                    ! Wind Speed {m/s}
  170,                                    ! Wind Direction {deg}
  0,                                      ! Sky Clearness
  0,                                      ! Rain Indicator
  0,                                      ! Snow Indicator
  21,                                     ! Day of Month
  7,                                      ! Month
  SummerDesignDay,                        ! Day Type
  0,                                      ! Daylight Saving Time Indicator
  Wetbulb,                                ! Humidity Indicating Type
  ,                                       ! Humidity Indicating Day Schedule Name
  DefaultMultipliers,                     ! Dry-Bulb Temperature Range Modifier Type
  ,                                       ! Dry-Bulb Temperature Range Modifier Schedule Name
  ASHRAETau,                              ! Solar Model Indicator
  ,                                       ! Beam Solar Day Schedule Name
  ,                                       ! Diffuse Solar Day Schedule Name
  0.496,                                  ! ASHRAE Taub {dimensionless}
  1.979;                                  ! ASHRAE Taud {dimensionless}

OS:ComponentData,
  {458ac885-165c-483a-95bd-8267d7d70b7e}, ! Handle
  Component Data 1,                       ! Name
  {88c737c9-caff-4d3d-8328-2005eea99076}, ! UUID
  {154c5b59-1ee9-4cbd-b978-c30025fa55a3}, ! Version UUID
  1366310748,                             ! Creation Timestamp
  1366310748,                             ! Version Timestamp
  {7ebf2b01-7463-4f25-9131-2dd35384d5ff}; ! Name of Object 1

