
OS:Version,
  {88f04b2f-12f5-45f1-a147-ff8d5c46f28a}, ! Handle
  0.9.3;                                  ! Version Identifier

OS:SizingPeriod:DesignDay,
  {d3477270-2427-40d3-ad60-d7a2fae86211}, ! Handle
  Kake Seaplane Base Ann Clg .4% Condns DP=>MDB, ! Name
  15.8,                                   ! Maximum Dry-Bulb Temperature {C}
  6.3,                                    ! Daily Dry-Bulb Temperature Range {deltaC}
  12.8,                                   ! Humidity Indicating Conditions at Maximum Dry-Bulb {BasedOnField A3}
  101325,                                 ! Barometric Pressure {Pa}
  2.6,                                    ! Wind Speed {m/s}
  280,                                    ! Wind Direction {deg}
  0,                                      ! Sky Clearness
  0,                                      ! Rain Indicator
  0,                                      ! Snow Indicator
  21,                                     ! Day of Month
  7,                                      ! Month
  SummerDesignDay,                        ! Day Type
  0,                                      ! Daylight Saving Time Indicator
  Dewpoint,                               ! Humidity Indicating Type
  ,                                       ! Humidity Indicating Day Schedule Name
  DefaultMultipliers,                     ! Dry-Bulb Temperature Range Modifier Type
  ,                                       ! Dry-Bulb Temperature Range Modifier Schedule Name
  ASHRAETau,                              ! Solar Model Indicator
  ,                                       ! Beam Solar Day Schedule Name
  ,                                       ! Diffuse Solar Day Schedule Name
  0.386,                                  ! ASHRAE Taub {dimensionless}
  2.213;                                  ! ASHRAE Taud {dimensionless}

OS:ComponentData,
  {a7d048e7-7430-43ce-8b68-204bfe489096}, ! Handle
  Component Data 1,                       ! Name
  {ff1806a6-3069-4a59-bd9d-9d275aba3723}, ! UUID
  {5d8ef9af-aa1d-4b8a-bcb7-de56422d0f94}, ! Version UUID
  1366305345,                             ! Creation Timestamp
  1366305345,                             ! Version Timestamp
  {d3477270-2427-40d3-ad60-d7a2fae86211}; ! Name of Object 1

