
OS:Version,
  {855541a3-4036-4162-974d-67593d8e5255}, ! Handle
  0.9.3;                                  ! Version Identifier

OS:SizingPeriod:DesignDay,
  {fc50088e-e124-4ed7-ae0e-949b002acba6}, ! Handle
  Benson Muni Ann Htg Wind 99.6% Condns WS=>MCDB, ! Name
  -11.3,                                  ! Maximum Dry-Bulb Temperature {C}
  0,                                      ! Daily Dry-Bulb Temperature Range {deltaC}
  -11.3,                                  ! Humidity Indicating Conditions at Maximum Dry-Bulb {BasedOnField A3}
  97574,                                  ! Barometric Pressure {Pa}
  14.2,                                   ! Wind Speed {m/s}
  300,                                    ! Wind Direction {deg}
  0,                                      ! Sky Clearness
  0,                                      ! Rain Indicator
  0,                                      ! Snow Indicator
  21,                                     ! Day of Month
  1,                                      ! Month
  WinterDesignDay,                        ! Day Type
  0,                                      ! Daylight Saving Time Indicator
  Wetbulb,                                ! Humidity Indicating Type
  ,                                       ! Humidity Indicating Day Schedule Name
  DefaultMultipliers,                     ! Dry-Bulb Temperature Range Modifier Type
  ,                                       ! Dry-Bulb Temperature Range Modifier Schedule Name
  ASHRAEClearSky;                         ! Solar Model Indicator

OS:ComponentData,
  {3710a824-88b2-4748-85bd-0849cbd31d05}, ! Handle
  Component Data 1,                       ! Name
  {10335fef-810d-48e4-9f6a-797bfa2785e8}, ! UUID
  {bb57ad26-0080-408d-bac6-70a89cbed4d1}, ! Version UUID
  1366308162,                             ! Creation Timestamp
  1366308162,                             ! Version Timestamp
  {fc50088e-e124-4ed7-ae0e-949b002acba6}; ! Name of Object 1

