
OS:Version,
  {dc56261f-0a36-446c-8317-a508f5715a65}, ! Handle
  0.9.3;                                  ! Version Identifier

OS:SizingPeriod:DesignDay,
  {f85af89f-0eb9-4869-b664-994915825520}, ! Handle
  Glens Falls Ap Ann Htg 99% Condns DB,   ! Name
  -19.7,                                  ! Maximum Dry-Bulb Temperature {C}
  0,                                      ! Daily Dry-Bulb Temperature Range {deltaC}
  -19.7,                                  ! Humidity Indicating Conditions at Maximum Dry-Bulb {BasedOnField A3}
  100153,                                 ! Barometric Pressure {Pa}
  0.9,                                    ! Wind Speed {m/s}
  320,                                    ! Wind Direction {deg}
  0,                                      ! Sky Clearness
  0,                                      ! Rain Indicator
  0,                                      ! Snow Indicator
  21,                                     ! Day of Month
  1,                                      ! Month
  WinterDesignDay,                        ! Day Type
  0,                                      ! Daylight Saving Time Indicator
  Wetbulb,                                ! Humidity Indicating Type
  ,                                       ! Humidity Indicating Day Schedule Name
  DefaultMultipliers,                     ! Dry-Bulb Temperature Range Modifier Type
  ,                                       ! Dry-Bulb Temperature Range Modifier Schedule Name
  ASHRAEClearSky;                         ! Solar Model Indicator

OS:ComponentData,
  {5e43c22e-dcaa-413f-9fe4-ddd2c57a97fd}, ! Handle
  Component Data 1,                       ! Name
  {150f44bc-8d7a-40e3-b03b-e24d81917398}, ! UUID
  {5d7a4c8e-299e-4050-b26f-abf888c303cb}, ! Version UUID
  1366309625,                             ! Creation Timestamp
  1366309625,                             ! Version Timestamp
  {f85af89f-0eb9-4869-b664-994915825520}; ! Name of Object 1

