
OS:Version,
  {0c142073-86d7-4fac-907c-c24f3bafc980}, ! Handle
  0.9.3;                                  ! Version Identifier

OS:SizingPeriod:DesignDay,
  {6527bc87-b7f2-4798-aba6-8170f54d9cb5}, ! Handle
  Des Moines Intl Ap Ann Clg 1% Condns DP=>MDB, ! Name
  28.5,                                   ! Maximum Dry-Bulb Temperature {C}
  10.1,                                   ! Daily Dry-Bulb Temperature Range {deltaC}
  23.3,                                   ! Humidity Indicating Conditions at Maximum Dry-Bulb {BasedOnField A3}
  97866,                                  ! Barometric Pressure {Pa}
  5.4,                                    ! Wind Speed {m/s}
  180,                                    ! Wind Direction {deg}
  0,                                      ! Sky Clearness
  0,                                      ! Rain Indicator
  0,                                      ! Snow Indicator
  21,                                     ! Day of Month
  7,                                      ! Month
  SummerDesignDay,                        ! Day Type
  0,                                      ! Daylight Saving Time Indicator
  Dewpoint,                               ! Humidity Indicating Type
  ,                                       ! Humidity Indicating Day Schedule Name
  DefaultMultipliers,                     ! Dry-Bulb Temperature Range Modifier Type
  ,                                       ! Dry-Bulb Temperature Range Modifier Schedule Name
  ASHRAETau,                              ! Solar Model Indicator
  ,                                       ! Beam Solar Day Schedule Name
  ,                                       ! Diffuse Solar Day Schedule Name
  0.425,                                  ! ASHRAE Taub {dimensionless}
  2.17;                                   ! ASHRAE Taud {dimensionless}

OS:ComponentData,
  {a5d2df16-f89c-4aa9-9399-06e2619f6aa8}, ! Handle
  Component Data 1,                       ! Name
  {c8a419ae-f34f-472e-977f-609c6e39d8d7}, ! UUID
  {4df83af0-1c05-4385-a677-84bcee0f84b7}, ! Version UUID
  1366307182,                             ! Creation Timestamp
  1366307182,                             ! Version Timestamp
  {6527bc87-b7f2-4798-aba6-8170f54d9cb5}; ! Name of Object 1

