
OS:Version,
  {bc28f3e0-c7b0-4fda-ba9c-2a8d22bc9418}, ! Handle
  0.9.3;                                  ! Version Identifier

OS:SizingPeriod:DesignDay,
  {8d93969d-96ce-435b-b843-b71eb8781af1}, ! Handle
  Elko Municipal Arpt Ann Clg .4% Condns DP=>MDB, ! Name
  20.1,                                   ! Maximum Dry-Bulb Temperature {C}
  21.8,                                   ! Daily Dry-Bulb Temperature Range {deltaC}
  13.8,                                   ! Humidity Indicating Conditions at Maximum Dry-Bulb {BasedOnField A3}
  84059,                                  ! Barometric Pressure {Pa}
  4.1,                                    ! Wind Speed {m/s}
  240,                                    ! Wind Direction {deg}
  0,                                      ! Sky Clearness
  0,                                      ! Rain Indicator
  0,                                      ! Snow Indicator
  21,                                     ! Day of Month
  7,                                      ! Month
  SummerDesignDay,                        ! Day Type
  0,                                      ! Daylight Saving Time Indicator
  Dewpoint,                               ! Humidity Indicating Type
  ,                                       ! Humidity Indicating Day Schedule Name
  DefaultMultipliers,                     ! Dry-Bulb Temperature Range Modifier Type
  ,                                       ! Dry-Bulb Temperature Range Modifier Schedule Name
  ASHRAETau,                              ! Solar Model Indicator
  ,                                       ! Beam Solar Day Schedule Name
  ,                                       ! Diffuse Solar Day Schedule Name
  0.446,                                  ! ASHRAE Taub {dimensionless}
  1.888;                                  ! ASHRAE Taud {dimensionless}

OS:ComponentData,
  {45375301-360b-4545-a727-46cba063ce0d}, ! Handle
  Component Data 1,                       ! Name
  {8577949e-246b-4c77-9413-b001cfe93743}, ! UUID
  {9b73a072-5d6d-477c-962b-729abd2538df}, ! Version UUID
  1366309467,                             ! Creation Timestamp
  1366309467,                             ! Version Timestamp
  {8d93969d-96ce-435b-b843-b71eb8781af1}; ! Name of Object 1

