
OS:Version,
  {aa8666aa-441a-43f4-b6bd-cb97924477d9}, ! Handle
  0.9.3;                                  ! Version Identifier

OS:SizingPeriod:DesignDay,
  {0feae408-b4d5-4bb2-8f78-8fbcfefa6e4c}, ! Handle
  LONG_BEACH Ann Hum_n 99% Condns DP=>MCDB, ! Name
  17.3,                                   ! Maximum Dry-Bulb Temperature {C}
  0,                                      ! Daily Dry-Bulb Temperature Range {deltaC}
  -7.1,                                   ! Humidity Indicating Conditions at Maximum Dry-Bulb {BasedOnField A3}
  101121,                                 ! Barometric Pressure {Pa}
  1.2,                                    ! Wind Speed {m/s}
  300,                                    ! Wind Direction {deg}
  0,                                      ! Sky Clearness
  0,                                      ! Rain Indicator
  0,                                      ! Snow Indicator
  21,                                     ! Day of Month
  12,                                     ! Month
  WinterDesignDay,                        ! Day Type
  0,                                      ! Daylight Saving Time Indicator
  Dewpoint,                               ! Humidity Indicating Type
  ,                                       ! Humidity Indicating Day Schedule Name
  DefaultMultipliers,                     ! Dry-Bulb Temperature Range Modifier Type
  ,                                       ! Dry-Bulb Temperature Range Modifier Schedule Name
  ASHRAEClearSky;                         ! Solar Model Indicator

OS:ComponentData,
  {f55f2d86-aac5-49db-be12-caf3e70dd083}, ! Handle
  Component Data 1,                       ! Name
  {e0303ee9-18e5-49b1-aeeb-0878cd2d9ca3}, ! UUID
  {c06565bc-0ce7-4a1c-b21c-f5d15aac88dc}, ! Version UUID
  1366306475,                             ! Creation Timestamp
  1366306475,                             ! Version Timestamp
  {0feae408-b4d5-4bb2-8f78-8fbcfefa6e4c}; ! Name of Object 1

