
OS:Version,
  {b612e60d-90b8-4668-bd6b-180c7f74b8d4}, ! Handle
  0.9.3;                                  ! Version Identifier

OS:SizingPeriod:DesignDay,
  {e63bc6fd-9445-41c1-92d9-4324a973dca0}, ! Handle
  Los Angeles Ann Clg 1% Condns WB=>MDB,  ! Name
  24.5,                                   ! Maximum Dry-Bulb Temperature {C}
  6,                                      ! Daily Dry-Bulb Temperature Range {deltaC}
  20.6,                                   ! Humidity Indicating Conditions at Maximum Dry-Bulb {BasedOnField A3}
  100941,                                 ! Barometric Pressure {Pa}
  4.1,                                    ! Wind Speed {m/s}
  250,                                    ! Wind Direction {deg}
  0,                                      ! Sky Clearness
  0,                                      ! Rain Indicator
  0,                                      ! Snow Indicator
  21,                                     ! Day of Month
  8,                                      ! Month
  SummerDesignDay,                        ! Day Type
  0,                                      ! Daylight Saving Time Indicator
  Wetbulb,                                ! Humidity Indicating Type
  ,                                       ! Humidity Indicating Day Schedule Name
  DefaultMultipliers,                     ! Dry-Bulb Temperature Range Modifier Type
  ,                                       ! Dry-Bulb Temperature Range Modifier Schedule Name
  ASHRAETau,                              ! Solar Model Indicator
  ,                                       ! Beam Solar Day Schedule Name
  ,                                       ! Diffuse Solar Day Schedule Name
  0.44,                                   ! ASHRAE Taub {dimensionless}
  2.108;                                  ! ASHRAE Taud {dimensionless}

OS:ComponentData,
  {5ecc592b-f4d1-4b5b-acc2-3322648a79f9}, ! Handle
  Component Data 1,                       ! Name
  {4479ba9b-13e7-48ee-a3a6-f6fc0b878e9f}, ! UUID
  {dc18b61f-1b27-4e9b-a618-de03137aea6b}, ! Version UUID
  1366306481,                             ! Creation Timestamp
  1366306481,                             ! Version Timestamp
  {e63bc6fd-9445-41c1-92d9-4324a973dca0}; ! Name of Object 1

