
OS:Version,
  {255b3089-10e3-4e04-b7dd-d29adafd966a}, ! Handle
  0.9.3;                                  ! Version Identifier

OS:SizingPeriod:DesignDay,
  {66924ba4-8c1f-43ae-8753-7e6d6805fd72}, ! Handle
  HILO Ann Htg 99% Condns DB,             ! Name
  17.1,                                   ! Maximum Dry-Bulb Temperature {C}
  0,                                      ! Daily Dry-Bulb Temperature Range {deltaC}
  17.1,                                   ! Humidity Indicating Conditions at Maximum Dry-Bulb {BasedOnField A3}
  101193,                                 ! Barometric Pressure {Pa}
  2.8,                                    ! Wind Speed {m/s}
  220,                                    ! Wind Direction {deg}
  0,                                      ! Sky Clearness
  0,                                      ! Rain Indicator
  0,                                      ! Snow Indicator
  21,                                     ! Day of Month
  2,                                      ! Month
  WinterDesignDay,                        ! Day Type
  0,                                      ! Daylight Saving Time Indicator
  Wetbulb,                                ! Humidity Indicating Type
  ,                                       ! Humidity Indicating Day Schedule Name
  DefaultMultipliers,                     ! Dry-Bulb Temperature Range Modifier Type
  ,                                       ! Dry-Bulb Temperature Range Modifier Schedule Name
  ASHRAEClearSky;                         ! Solar Model Indicator

OS:ComponentData,
  {b58a6ce9-3f4c-46cb-85a9-1651ec5855a1}, ! Handle
  Component Data 1,                       ! Name
  {f2c6a97f-debb-49e5-8815-004a8f95a9a3}, ! UUID
  {985ad5b6-1359-4e48-8d2a-8cc3d155c24f}, ! Version UUID
  1366307076,                             ! Creation Timestamp
  1366307076,                             ! Version Timestamp
  {66924ba4-8c1f-43ae-8753-7e6d6805fd72}; ! Name of Object 1

