
OS:Version,
  {a838c204-f486-4279-91df-ee3e37f6123f}, ! Handle
  0.9.3;                                  ! Version Identifier

OS:SizingPeriod:DesignDay,
  {e5100370-5022-4588-b9e4-63c7f14509d0}, ! Handle
  Lafayette Purdue Univ Ap Ann Clg .4% Condns WB=>MDB, ! Name
  31.5,                                   ! Maximum Dry-Bulb Temperature {C}
  11.1,                                   ! Daily Dry-Bulb Temperature Range {deltaC}
  26,                                     ! Humidity Indicating Conditions at Maximum Dry-Bulb {BasedOnField A3}
  99146,                                  ! Barometric Pressure {Pa}
  4.8,                                    ! Wind Speed {m/s}
  230,                                    ! Wind Direction {deg}
  0,                                      ! Sky Clearness
  0,                                      ! Rain Indicator
  0,                                      ! Snow Indicator
  21,                                     ! Day of Month
  7,                                      ! Month
  SummerDesignDay,                        ! Day Type
  0,                                      ! Daylight Saving Time Indicator
  Wetbulb,                                ! Humidity Indicating Type
  ,                                       ! Humidity Indicating Day Schedule Name
  DefaultMultipliers,                     ! Dry-Bulb Temperature Range Modifier Type
  ,                                       ! Dry-Bulb Temperature Range Modifier Schedule Name
  ASHRAETau,                              ! Solar Model Indicator
  ,                                       ! Beam Solar Day Schedule Name
  ,                                       ! Diffuse Solar Day Schedule Name
  0.463,                                  ! ASHRAE Taub {dimensionless}
  2.02;                                   ! ASHRAE Taud {dimensionless}

OS:ComponentData,
  {245c778b-3dc5-4f77-9d78-7ed844d030af}, ! Handle
  Component Data 1,                       ! Name
  {255f2820-4b50-4fc4-aba8-fb24de809828}, ! UUID
  {99afe4eb-7ab9-44c2-a08d-e733c44cfca6}, ! Version UUID
  1366307472,                             ! Creation Timestamp
  1366307472,                             ! Version Timestamp
  {e5100370-5022-4588-b9e4-63c7f14509d0}; ! Name of Object 1

