
OS:Version,
  {6a252063-8ae7-4657-92b4-c1ca61facf92}, ! Handle
  0.9.3;                                  ! Version Identifier

OS:SizingPeriod:DesignDay,
  {9c9f474c-8859-4ced-9074-1a5311f5270d}, ! Handle
  BETHEL Ann Clg 2% Condns DP=>MDB,       ! Name
  14.8,                                   ! Maximum Dry-Bulb Temperature {C}
  7.7,                                    ! Daily Dry-Bulb Temperature Range {deltaC}
  12.1,                                   ! Humidity Indicating Conditions at Maximum Dry-Bulb {BasedOnField A3}
  100774,                                 ! Barometric Pressure {Pa}
  4.9,                                    ! Wind Speed {m/s}
  10,                                     ! Wind Direction {deg}
  0,                                      ! Sky Clearness
  0,                                      ! Rain Indicator
  0,                                      ! Snow Indicator
  21,                                     ! Day of Month
  7,                                      ! Month
  SummerDesignDay,                        ! Day Type
  0,                                      ! Daylight Saving Time Indicator
  Dewpoint,                               ! Humidity Indicating Type
  ,                                       ! Humidity Indicating Day Schedule Name
  DefaultMultipliers,                     ! Dry-Bulb Temperature Range Modifier Type
  ,                                       ! Dry-Bulb Temperature Range Modifier Schedule Name
  ASHRAETau,                              ! Solar Model Indicator
  ,                                       ! Beam Solar Day Schedule Name
  ,                                       ! Diffuse Solar Day Schedule Name
  0.383,                                  ! ASHRAE Taub {dimensionless}
  2.185;                                  ! ASHRAE Taud {dimensionless}

OS:ComponentData,
  {8fcd62b4-3e41-48c8-bdf5-f5e05ddc4702}, ! Handle
  Component Data 1,                       ! Name
  {c879ac7e-5d76-4f50-8808-5004a68b0530}, ! UUID
  {ff1cb242-3d3e-4322-ad1d-2e7942c8fdd5}, ! Version UUID
  1366304748,                             ! Creation Timestamp
  1366304748,                             ! Version Timestamp
  {9c9f474c-8859-4ced-9074-1a5311f5270d}; ! Name of Object 1

