
OS:Version,
  {cd836e6e-7b8c-4f69-b873-2f102b2f4dd8}, ! Handle
  0.9.3;                                  ! Version Identifier

OS:SizingPeriod:DesignDay,
  {40447606-f3ea-47ed-a1a0-338c06d15fc8}, ! Handle
  Denver Centennial  Golden   N Ann Clg 1% Condns Enth=>MDB, ! Name
  26.6,                                   ! Maximum Dry-Bulb Temperature {C}
  15.2,                                   ! Daily Dry-Bulb Temperature Range {deltaC}
  56600,                                  ! Humidity Indicating Conditions at Maximum Dry-Bulb {BasedOnField A3}
  81198,                                  ! Barometric Pressure {Pa}
  4.9,                                    ! Wind Speed {m/s}
  0,                                      ! Wind Direction {deg}
  0,                                      ! Sky Clearness
  0,                                      ! Rain Indicator
  0,                                      ! Snow Indicator
  21,                                     ! Day of Month
  7,                                      ! Month
  SummerDesignDay,                        ! Day Type
  0,                                      ! Daylight Saving Time Indicator
  Enthalpy,                               ! Humidity Indicating Type
  ,                                       ! Humidity Indicating Day Schedule Name
  DefaultMultipliers,                     ! Dry-Bulb Temperature Range Modifier Type
  ,                                       ! Dry-Bulb Temperature Range Modifier Schedule Name
  ASHRAETau,                              ! Solar Model Indicator
  ,                                       ! Beam Solar Day Schedule Name
  ,                                       ! Diffuse Solar Day Schedule Name
  0.424,                                  ! ASHRAE Taub {dimensionless}
  2.025;                                  ! ASHRAE Taud {dimensionless}

