
OS:Version,
  {0e6687e3-33ee-4b46-8d52-8d3a5587210b}, ! Handle
  0.9.3;                                  ! Version Identifier

OS:SizingPeriod:DesignDay,
  {f97a9f13-e5fe-4e7a-af99-2a42e03e20fa}, ! Handle
  Fort Campbell Aaf Ann Clg 2% Condns DB=>MWB, ! Name
  32.3,                                   ! Maximum Dry-Bulb Temperature {C}
  10.5,                                   ! Daily Dry-Bulb Temperature Range {deltaC}
  24.2,                                   ! Humidity Indicating Conditions at Maximum Dry-Bulb {BasedOnField A3}
  99264,                                  ! Barometric Pressure {Pa}
  3,                                      ! Wind Speed {m/s}
  210,                                    ! Wind Direction {deg}
  0,                                      ! Sky Clearness
  0,                                      ! Rain Indicator
  0,                                      ! Snow Indicator
  21,                                     ! Day of Month
  7,                                      ! Month
  SummerDesignDay,                        ! Day Type
  0,                                      ! Daylight Saving Time Indicator
  Wetbulb,                                ! Humidity Indicating Type
  ,                                       ! Humidity Indicating Day Schedule Name
  DefaultMultipliers,                     ! Dry-Bulb Temperature Range Modifier Type
  ,                                       ! Dry-Bulb Temperature Range Modifier Schedule Name
  ASHRAETau,                              ! Solar Model Indicator
  ,                                       ! Beam Solar Day Schedule Name
  ,                                       ! Diffuse Solar Day Schedule Name
  0.511,                                  ! ASHRAE Taub {dimensionless}
  1.883;                                  ! ASHRAE Taud {dimensionless}

OS:ComponentData,
  {22493bd9-8667-4816-8bc7-d88ba0f7e8ef}, ! Handle
  Component Data 1,                       ! Name
  {954d1a3e-10cd-4497-af72-99a06fcb9560}, ! UUID
  {b9425d17-6875-4ed0-9ace-0c8648c7216e}, ! Version UUID
  1366307629,                             ! Creation Timestamp
  1366307629,                             ! Version Timestamp
  {f97a9f13-e5fe-4e7a-af99-2a42e03e20fa}; ! Name of Object 1

