
OS:Version,
  {c7a19d95-a36f-443a-a68d-ef9e91ca9b0f}, ! Handle
  0.9.3;                                  ! Version Identifier

OS:SizingPeriod:DesignDay,
  {3182bff3-d249-4530-8431-92d988a51ad3}, ! Handle
  Caribou Municipal Arpt Ann Clg 1% Condns DP=>MDB, ! Name
  23.4,                                   ! Maximum Dry-Bulb Temperature {C}
  10.9,                                   ! Daily Dry-Bulb Temperature Range {deltaC}
  19.6,                                   ! Humidity Indicating Conditions at Maximum Dry-Bulb {BasedOnField A3}
  99063,                                  ! Barometric Pressure {Pa}
  4.3,                                    ! Wind Speed {m/s}
  250,                                    ! Wind Direction {deg}
  0,                                      ! Sky Clearness
  0,                                      ! Rain Indicator
  0,                                      ! Snow Indicator
  21,                                     ! Day of Month
  7,                                      ! Month
  SummerDesignDay,                        ! Day Type
  0,                                      ! Daylight Saving Time Indicator
  Dewpoint,                               ! Humidity Indicating Type
  ,                                       ! Humidity Indicating Day Schedule Name
  DefaultMultipliers,                     ! Dry-Bulb Temperature Range Modifier Type
  ,                                       ! Dry-Bulb Temperature Range Modifier Schedule Name
  ASHRAETau,                              ! Solar Model Indicator
  ,                                       ! Beam Solar Day Schedule Name
  ,                                       ! Diffuse Solar Day Schedule Name
  0.429,                                  ! ASHRAE Taub {dimensionless}
  2.106;                                  ! ASHRAE Taud {dimensionless}

OS:ComponentData,
  {122e4870-3616-4685-9bb9-2a765a8855ea}, ! Handle
  Component Data 1,                       ! Name
  {93ef8ab9-198a-44f7-aba5-3c77d86b1918}, ! UUID
  {be57420f-a820-4b03-8640-97d5324affe5}, ! Version UUID
  1366307895,                             ! Creation Timestamp
  1366307895,                             ! Version Timestamp
  {3182bff3-d249-4530-8431-92d988a51ad3}; ! Name of Object 1

