
OS:Version,
  {a4093a47-3062-4c3a-8078-5a8f2046319c}, ! Handle
  0.9.3;                                  ! Version Identifier

OS:SizingPeriod:DesignDay,
  {7a73818b-0d9a-4799-9318-821c946dab6e}, ! Handle
  Kingsville/NAS Ann Clg .4% Condns WB=>MDB, ! Name
  32.9,                                   ! Maximum Dry-Bulb Temperature {C}
  10.5,                                   ! Daily Dry-Bulb Temperature Range {deltaC}
  27.6,                                   ! Humidity Indicating Conditions at Maximum Dry-Bulb {BasedOnField A3}
  101145,                                 ! Barometric Pressure {Pa}
  5.4,                                    ! Wind Speed {m/s}
  130,                                    ! Wind Direction {deg}
  0,                                      ! Sky Clearness
  0,                                      ! Rain Indicator
  0,                                      ! Snow Indicator
  21,                                     ! Day of Month
  7,                                      ! Month
  SummerDesignDay,                        ! Day Type
  0,                                      ! Daylight Saving Time Indicator
  Wetbulb,                                ! Humidity Indicating Type
  ,                                       ! Humidity Indicating Day Schedule Name
  DefaultMultipliers,                     ! Dry-Bulb Temperature Range Modifier Type
  ,                                       ! Dry-Bulb Temperature Range Modifier Schedule Name
  ASHRAETau,                              ! Solar Model Indicator
  ,                                       ! Beam Solar Day Schedule Name
  ,                                       ! Diffuse Solar Day Schedule Name
  0.452,                                  ! ASHRAE Taub {dimensionless}
  2.153;                                  ! ASHRAE Taud {dimensionless}

OS:ComponentData,
  {7cd7d726-c891-4f5e-8b94-45716f520572}, ! Handle
  Component Data 1,                       ! Name
  {1060e709-b56b-4766-9599-2d9010ea57e6}, ! UUID
  {728cb619-73d3-47b5-bdd8-9dcc00b269c4}, ! Version UUID
  1366310772,                             ! Creation Timestamp
  1366310772,                             ! Version Timestamp
  {7a73818b-0d9a-4799-9318-821c946dab6e}; ! Name of Object 1

