
OS:Version,
  {c883bb10-84be-42a8-af6e-f772d26bda8a}, ! Handle
  0.9.3;                                  ! Version Identifier

OS:SizingPeriod:DesignDay,
  {9011de14-440b-48b0-a589-97acb2956c07}, ! Handle
  Kingsville Ann Clg 1% Condns DP=>MDB,   ! Name
  29,                                     ! Maximum Dry-Bulb Temperature {C}
  10.5,                                   ! Daily Dry-Bulb Temperature Range {deltaC}
  26,                                     ! Humidity Indicating Conditions at Maximum Dry-Bulb {BasedOnField A3}
  101121,                                 ! Barometric Pressure {Pa}
  5.4,                                    ! Wind Speed {m/s}
  130,                                    ! Wind Direction {deg}
  0,                                      ! Sky Clearness
  0,                                      ! Rain Indicator
  0,                                      ! Snow Indicator
  21,                                     ! Day of Month
  7,                                      ! Month
  SummerDesignDay,                        ! Day Type
  0,                                      ! Daylight Saving Time Indicator
  Dewpoint,                               ! Humidity Indicating Type
  ,                                       ! Humidity Indicating Day Schedule Name
  DefaultMultipliers,                     ! Dry-Bulb Temperature Range Modifier Type
  ,                                       ! Dry-Bulb Temperature Range Modifier Schedule Name
  ASHRAETau,                              ! Solar Model Indicator
  ,                                       ! Beam Solar Day Schedule Name
  ,                                       ! Diffuse Solar Day Schedule Name
  0.452,                                  ! ASHRAE Taub {dimensionless}
  2.153;                                  ! ASHRAE Taud {dimensionless}

OS:ComponentData,
  {35a7046a-a8a6-4ae1-9fcf-d1e90236cc0a}, ! Handle
  Component Data 1,                       ! Name
  {79e0dd1d-ee1f-432a-8a3b-0eb99e12883d}, ! UUID
  {8a02cc62-227f-49b8-a9f6-0fabdccbad71}, ! Version UUID
  1366310776,                             ! Creation Timestamp
  1366310776,                             ! Version Timestamp
  {9011de14-440b-48b0-a589-97acb2956c07}; ! Name of Object 1

