
OS:Version,
  {f7ca68dd-2604-402a-a21a-3c530a407bba}, ! Handle
  0.9.3;                                  ! Version Identifier

OS:SizingPeriod:DesignDay,
  {00177e19-b9af-47e9-91e4-a6ac62d5ffc9}, ! Handle
  Childress Municipal Ap Ann Hum_n 99.6% Condns DP=>MCDB, ! Name
  -0.7,                                   ! Maximum Dry-Bulb Temperature {C}
  0,                                      ! Daily Dry-Bulb Temperature Range {deltaC}
  -17.1,                                  ! Humidity Indicating Conditions at Maximum Dry-Bulb {BasedOnField A3}
  94378,                                  ! Barometric Pressure {Pa}
  4.6,                                    ! Wind Speed {m/s}
  340,                                    ! Wind Direction {deg}
  0,                                      ! Sky Clearness
  0,                                      ! Rain Indicator
  0,                                      ! Snow Indicator
  21,                                     ! Day of Month
  1,                                      ! Month
  WinterDesignDay,                        ! Day Type
  0,                                      ! Daylight Saving Time Indicator
  Dewpoint,                               ! Humidity Indicating Type
  ,                                       ! Humidity Indicating Day Schedule Name
  DefaultMultipliers,                     ! Dry-Bulb Temperature Range Modifier Type
  ,                                       ! Dry-Bulb Temperature Range Modifier Schedule Name
  ASHRAEClearSky;                         ! Solar Model Indicator

OS:ComponentData,
  {0323eb2a-f96e-4352-87d0-a1fb27abe2bf}, ! Handle
  Component Data 1,                       ! Name
  {62549fd9-2b1e-48f1-88c8-e1621f98a5c9}, ! UUID
  {eaee208f-4e8c-4eb2-a63a-b0bfcdbd4f73}, ! Version UUID
  1366310613,                             ! Creation Timestamp
  1366310613,                             ! Version Timestamp
  {00177e19-b9af-47e9-91e4-a6ac62d5ffc9}; ! Name of Object 1

