
OS:Version,
  {49493ef8-2b9d-41df-8b46-89d0c24e67bf}, ! Handle
  0.9.3;                                  ! Version Identifier

OS:SizingPeriod:DesignDay,
  {eb75b417-0296-4545-993a-4ed39af32b95}, ! Handle
  Atlantic City Intl Ap Ann Clg 2% Condns DB=>MWB, ! Name
  30.2,                                   ! Maximum Dry-Bulb Temperature {C}
  10.2,                                   ! Daily Dry-Bulb Temperature Range {deltaC}
  22.7,                                   ! Humidity Indicating Conditions at Maximum Dry-Bulb {BasedOnField A3}
  101109,                                 ! Barometric Pressure {Pa}
  5,                                      ! Wind Speed {m/s}
  230,                                    ! Wind Direction {deg}
  0,                                      ! Sky Clearness
  0,                                      ! Rain Indicator
  0,                                      ! Snow Indicator
  21,                                     ! Day of Month
  7,                                      ! Month
  SummerDesignDay,                        ! Day Type
  0,                                      ! Daylight Saving Time Indicator
  Wetbulb,                                ! Humidity Indicating Type
  ,                                       ! Humidity Indicating Day Schedule Name
  DefaultMultipliers,                     ! Dry-Bulb Temperature Range Modifier Type
  ,                                       ! Dry-Bulb Temperature Range Modifier Schedule Name
  ASHRAETau,                              ! Solar Model Indicator
  ,                                       ! Beam Solar Day Schedule Name
  ,                                       ! Diffuse Solar Day Schedule Name
  0.557,                                  ! ASHRAE Taub {dimensionless}
  1.774;                                  ! ASHRAE Taud {dimensionless}

OS:ComponentData,
  {8a6a6f0c-638c-4c85-b761-d3443686a0dc}, ! Handle
  Component Data 1,                       ! Name
  {3182f1ef-67e2-49bc-a977-f3e265411818}, ! UUID
  {3b7d2eb3-6ec1-4a13-a77c-faa89b51fd26}, ! Version UUID
  1366309288,                             ! Creation Timestamp
  1366309288,                             ! Version Timestamp
  {eb75b417-0296-4545-993a-4ed39af32b95}; ! Name of Object 1

