
OS:Version,
  {0403ce83-0ce1-410e-86c5-90f8393c1a9a}, ! Handle
  0.9.3;                                  ! Version Identifier

OS:SizingPeriod:DesignDay,
  {a7cfc125-e559-45c4-aa5c-273811837982}, ! Handle
  Colorado Springs Ann Htg 99.6% Condns DB, ! Name
  -18.2,                                  ! Maximum Dry-Bulb Temperature {C}
  0,                                      ! Daily Dry-Bulb Temperature Range {deltaC}
  -18.2,                                  ! Humidity Indicating Conditions at Maximum Dry-Bulb {BasedOnField A3}
  80677,                                  ! Barometric Pressure {Pa}
  2.8,                                    ! Wind Speed {m/s}
  20,                                     ! Wind Direction {deg}
  0,                                      ! Sky Clearness
  0,                                      ! Rain Indicator
  0,                                      ! Snow Indicator
  21,                                     ! Day of Month
  12,                                     ! Month
  WinterDesignDay,                        ! Day Type
  0,                                      ! Daylight Saving Time Indicator
  Wetbulb,                                ! Humidity Indicating Type
  ,                                       ! Humidity Indicating Day Schedule Name
  DefaultMultipliers,                     ! Dry-Bulb Temperature Range Modifier Type
  ,                                       ! Dry-Bulb Temperature Range Modifier Schedule Name
  ASHRAEClearSky;                         ! Solar Model Indicator

OS:ComponentData,
  {31b79bfa-fcf7-47f1-9042-f320e4cfeb09}, ! Handle
  Component Data 1,                       ! Name
  {8fce2c5a-1418-47ca-988d-7f4630757a2f}, ! UUID
  {4750dd55-d82d-40f3-95a1-095ce1174e17}, ! Version UUID
  1366306658,                             ! Creation Timestamp
  1366306658,                             ! Version Timestamp
  {a7cfc125-e559-45c4-aa5c-273811837982}; ! Name of Object 1

