
OS:Version,
  {4408ad0e-1652-44e2-b356-da64d2aa98a1}, ! Handle
  0.9.3;                                  ! Version Identifier

OS:SizingPeriod:DesignDay,
  {959d7abc-117f-4ae7-a0fa-1061a7957751}, ! Handle
  Fort Campbell Aaf Ann Htg Wind 99% Condns WS=>MCDB, ! Name
  5.5,                                    ! Maximum Dry-Bulb Temperature {C}
  0,                                      ! Daily Dry-Bulb Temperature Range {deltaC}
  5.5,                                    ! Humidity Indicating Conditions at Maximum Dry-Bulb {BasedOnField A3}
  99264,                                  ! Barometric Pressure {Pa}
  9.1,                                    ! Wind Speed {m/s}
  330,                                    ! Wind Direction {deg}
  0,                                      ! Sky Clearness
  0,                                      ! Rain Indicator
  0,                                      ! Snow Indicator
  21,                                     ! Day of Month
  1,                                      ! Month
  WinterDesignDay,                        ! Day Type
  0,                                      ! Daylight Saving Time Indicator
  Wetbulb,                                ! Humidity Indicating Type
  ,                                       ! Humidity Indicating Day Schedule Name
  DefaultMultipliers,                     ! Dry-Bulb Temperature Range Modifier Type
  ,                                       ! Dry-Bulb Temperature Range Modifier Schedule Name
  ASHRAEClearSky;                         ! Solar Model Indicator

OS:ComponentData,
  {806fae4c-71fa-46de-addd-bd6a7d513a3d}, ! Handle
  Component Data 1,                       ! Name
  {2fd7bfc6-0f70-48ce-a3db-98f6cf8e2fd5}, ! UUID
  {819ad30b-1f5f-482c-a8bd-5dfc4309c0d4}, ! Version UUID
  1366307628,                             ! Creation Timestamp
  1366307628,                             ! Version Timestamp
  {959d7abc-117f-4ae7-a0fa-1061a7957751}; ! Name of Object 1

