
OS:Version,
  {15e31941-e9d8-4192-89e3-7c5240eff920}, ! Handle
  0.9.3;                                  ! Version Identifier

OS:SizingPeriod:DesignDay,
  {0a7a6b08-8132-48ec-9d9a-132d079bd0dd}, ! Handle
  Barrow W Post W Rogers Arpt Ann Clg .4% Condns DB=>MWB, ! Name
  14.2,                                   ! Maximum Dry-Bulb Temperature {C}
  6.3,                                    ! Daily Dry-Bulb Temperature Range {deltaC}
  11.3,                                   ! Humidity Indicating Conditions at Maximum Dry-Bulb {BasedOnField A3}
  101205,                                 ! Barometric Pressure {Pa}
  5.2,                                    ! Wind Speed {m/s}
  180,                                    ! Wind Direction {deg}
  0,                                      ! Sky Clearness
  0,                                      ! Rain Indicator
  0,                                      ! Snow Indicator
  21,                                     ! Day of Month
  7,                                      ! Month
  SummerDesignDay,                        ! Day Type
  0,                                      ! Daylight Saving Time Indicator
  Wetbulb,                                ! Humidity Indicating Type
  ,                                       ! Humidity Indicating Day Schedule Name
  DefaultMultipliers,                     ! Dry-Bulb Temperature Range Modifier Type
  ,                                       ! Dry-Bulb Temperature Range Modifier Schedule Name
  ASHRAETau,                              ! Solar Model Indicator
  ,                                       ! Beam Solar Day Schedule Name
  ,                                       ! Diffuse Solar Day Schedule Name
  0.344,                                  ! ASHRAE Taub {dimensionless}
  2.25;                                   ! ASHRAE Taud {dimensionless}

OS:ComponentData,
  {b6b0dee0-cc76-4f90-8a83-5dc41a9c5e2e}, ! Handle
  Component Data 1,                       ! Name
  {10877e77-d53f-4393-9202-e9ae89885045}, ! UUID
  {bd37844b-8ca8-4365-8d99-b4593a5b439b}, ! Version UUID
  1366304736,                             ! Creation Timestamp
  1366304736,                             ! Version Timestamp
  {0a7a6b08-8132-48ec-9d9a-132d079bd0dd}; ! Name of Object 1

