
OS:Version,
  {bcc16f91-3f20-422a-916a-0d3a0a52050e}, ! Handle
  0.9.3;                                  ! Version Identifier

OS:SizingPeriod:DesignDay,
  {4147ac71-c886-4dcc-96b4-1ac7cd882dea}, ! Handle
  Douglas Bisbee Douglas Intl A Ann Clg 1% Condns DP=>MDB, ! Name
  21.7,                                   ! Maximum Dry-Bulb Temperature {C}
  17.9,                                   ! Daily Dry-Bulb Temperature Range {deltaC}
  18.5,                                   ! Humidity Indicating Conditions at Maximum Dry-Bulb {BasedOnField A3}
  87193,                                  ! Barometric Pressure {Pa}
  5,                                      ! Wind Speed {m/s}
  320,                                    ! Wind Direction {deg}
  0,                                      ! Sky Clearness
  0,                                      ! Rain Indicator
  0,                                      ! Snow Indicator
  21,                                     ! Day of Month
  6,                                      ! Month
  SummerDesignDay,                        ! Day Type
  0,                                      ! Daylight Saving Time Indicator
  Dewpoint,                               ! Humidity Indicating Type
  ,                                       ! Humidity Indicating Day Schedule Name
  DefaultMultipliers,                     ! Dry-Bulb Temperature Range Modifier Type
  ,                                       ! Dry-Bulb Temperature Range Modifier Schedule Name
  ASHRAETau,                              ! Solar Model Indicator
  ,                                       ! Beam Solar Day Schedule Name
  ,                                       ! Diffuse Solar Day Schedule Name
  0.453,                                  ! ASHRAE Taub {dimensionless}
  1.89;                                   ! ASHRAE Taud {dimensionless}

OS:ComponentData,
  {14822109-1f5d-4e24-9491-5dc437dcbe70}, ! Handle
  Component Data 1,                       ! Name
  {44347203-ae00-46d0-8c5c-fc7e725b1b28}, ! UUID
  {aed6ed30-f6cf-4f0c-b689-d610a60fc729}, ! Version UUID
  1366306272,                             ! Creation Timestamp
  1366306272,                             ! Version Timestamp
  {4147ac71-c886-4dcc-96b4-1ac7cd882dea}; ! Name of Object 1

