
OS:Version,
  {2a0014c9-2203-41fa-bba0-0558b10184d3}, ! Handle
  0.9.3;                                  ! Version Identifier

OS:SizingPeriod:DesignDay,
  {027cffb9-6d37-498e-af19-8f92eaebf4ef}, ! Handle
  El Paso International Ap  Ut Ann Htg Wind 99% Condns WS=>MCDB, ! Name
  10.7,                                   ! Maximum Dry-Bulb Temperature {C}
  0,                                      ! Daily Dry-Bulb Temperature Range {deltaC}
  10.7,                                   ! Humidity Indicating Conditions at Maximum Dry-Bulb {BasedOnField A3}
  87865,                                  ! Barometric Pressure {Pa}
  11,                                     ! Wind Speed {m/s}
  20,                                     ! Wind Direction {deg}
  0,                                      ! Sky Clearness
  0,                                      ! Rain Indicator
  0,                                      ! Snow Indicator
  21,                                     ! Day of Month
  12,                                     ! Month
  WinterDesignDay,                        ! Day Type
  0,                                      ! Daylight Saving Time Indicator
  Wetbulb,                                ! Humidity Indicating Type
  ,                                       ! Humidity Indicating Day Schedule Name
  DefaultMultipliers,                     ! Dry-Bulb Temperature Range Modifier Type
  ,                                       ! Dry-Bulb Temperature Range Modifier Schedule Name
  ASHRAEClearSky;                         ! Solar Model Indicator

OS:ComponentData,
  {53ba4b55-e0dc-4c5c-b695-620da776d7db}, ! Handle
  Component Data 1,                       ! Name
  {adea9a46-74f1-4262-b0bc-da147a1a05c8}, ! UUID
  {77101073-ea51-4635-8f29-beefa81819c9}, ! Version UUID
  1366310692,                             ! Creation Timestamp
  1366310692,                             ! Version Timestamp
  {027cffb9-6d37-498e-af19-8f92eaebf4ef}; ! Name of Object 1

