
OS:Version,
  {8bf5fca6-dbf8-4b0e-ba19-64a457ba34a2}, ! Handle
  0.9.3;                                  ! Version Identifier

OS:SizingPeriod:DesignDay,
  {03e14e1d-b615-45e7-a5fe-06b9d552c8a9}, ! Handle
  KALISPELL Ann Clg 1% Condns DP=>MDB,    ! Name
  19.9,                                   ! Maximum Dry-Bulb Temperature {C}
  17,                                     ! Daily Dry-Bulb Temperature Range {deltaC}
  14.1,                                   ! Humidity Indicating Conditions at Maximum Dry-Bulb {BasedOnField A3}
  90926,                                  ! Barometric Pressure {Pa}
  3.6,                                    ! Wind Speed {m/s}
  160,                                    ! Wind Direction {deg}
  0,                                      ! Sky Clearness
  0,                                      ! Rain Indicator
  0,                                      ! Snow Indicator
  21,                                     ! Day of Month
  7,                                      ! Month
  SummerDesignDay,                        ! Day Type
  0,                                      ! Daylight Saving Time Indicator
  Dewpoint,                               ! Humidity Indicating Type
  ,                                       ! Humidity Indicating Day Schedule Name
  DefaultMultipliers,                     ! Dry-Bulb Temperature Range Modifier Type
  ,                                       ! Dry-Bulb Temperature Range Modifier Schedule Name
  ASHRAETau,                              ! Solar Model Indicator
  ,                                       ! Beam Solar Day Schedule Name
  ,                                       ! Diffuse Solar Day Schedule Name
  0.355,                                  ! ASHRAE Taub {dimensionless}
  2.406;                                  ! ASHRAE Taud {dimensionless}

OS:ComponentData,
  {ddc2675c-0889-43f8-97c5-e417a44d3bba}, ! Handle
  Component Data 1,                       ! Name
  {de3758b5-3dc9-4fec-aabd-5ecd9f265cfc}, ! UUID
  {64b82e51-e168-48d9-aec0-61d04c4eda1c}, ! Version UUID
  1366308809,                             ! Creation Timestamp
  1366308809,                             ! Version Timestamp
  {03e14e1d-b615-45e7-a5fe-06b9d552c8a9}; ! Name of Object 1

