
OS:Version,
  {cd47700b-d538-4554-9531-e95be5b93ab7}, ! Handle
  0.9.3;                                  ! Version Identifier

OS:SizingPeriod:DesignDay,
  {8b005f69-fb23-4edf-b3a8-58af31bc91c7}, ! Handle
  Ketchikan Intl Ap Ann Clg 1% Condns DB=>MWB, ! Name
  20.2,                                   ! Maximum Dry-Bulb Temperature {C}
  5.8,                                    ! Daily Dry-Bulb Temperature Range {deltaC}
  15,                                     ! Humidity Indicating Conditions at Maximum Dry-Bulb {BasedOnField A3}
  101049,                                 ! Barometric Pressure {Pa}
  4.6,                                    ! Wind Speed {m/s}
  320,                                    ! Wind Direction {deg}
  0,                                      ! Sky Clearness
  0,                                      ! Rain Indicator
  0,                                      ! Snow Indicator
  21,                                     ! Day of Month
  8,                                      ! Month
  SummerDesignDay,                        ! Day Type
  0,                                      ! Daylight Saving Time Indicator
  Wetbulb,                                ! Humidity Indicating Type
  ,                                       ! Humidity Indicating Day Schedule Name
  DefaultMultipliers,                     ! Dry-Bulb Temperature Range Modifier Type
  ,                                       ! Dry-Bulb Temperature Range Modifier Schedule Name
  ASHRAETau,                              ! Solar Model Indicator
  ,                                       ! Beam Solar Day Schedule Name
  ,                                       ! Diffuse Solar Day Schedule Name
  0.369,                                  ! ASHRAE Taub {dimensionless}
  2.37;                                   ! ASHRAE Taud {dimensionless}

OS:ComponentData,
  {848784c1-e8b0-4d08-bbfa-0d9d9ae07b32}, ! Handle
  Component Data 1,                       ! Name
  {ebd682f8-32d3-4188-95d1-792631825083}, ! UUID
  {37b6e277-3ba8-4604-88cd-4f43f9b55c5d}, ! Version UUID
  1366305355,                             ! Creation Timestamp
  1366305355,                             ! Version Timestamp
  {8b005f69-fb23-4edf-b3a8-58af31bc91c7}; ! Name of Object 1

