
OS:Version,
  {42a1f722-2047-443b-a1df-a33b25504eb4}, ! Handle
  0.9.3;                                  ! Version Identifier

OS:SizingPeriod:DesignDay,
  {70637fe5-cb9e-4dc2-b722-b1f7dc337c49}, ! Handle
  Boston Logan IntL Arpt Ann Clg 2% Condns WB=>MDB, ! Name
  27.1,                                   ! Maximum Dry-Bulb Temperature {C}
  8.4,                                    ! Daily Dry-Bulb Temperature Range {deltaC}
  22.8,                                   ! Humidity Indicating Conditions at Maximum Dry-Bulb {BasedOnField A3}
  101253,                                 ! Barometric Pressure {Pa}
  6.3,                                    ! Wind Speed {m/s}
  270,                                    ! Wind Direction {deg}
  0,                                      ! Sky Clearness
  0,                                      ! Rain Indicator
  0,                                      ! Snow Indicator
  21,                                     ! Day of Month
  7,                                      ! Month
  SummerDesignDay,                        ! Day Type
  0,                                      ! Daylight Saving Time Indicator
  Wetbulb,                                ! Humidity Indicating Type
  ,                                       ! Humidity Indicating Day Schedule Name
  DefaultMultipliers,                     ! Dry-Bulb Temperature Range Modifier Type
  ,                                       ! Dry-Bulb Temperature Range Modifier Schedule Name
  ASHRAETau,                              ! Solar Model Indicator
  ,                                       ! Beam Solar Day Schedule Name
  ,                                       ! Diffuse Solar Day Schedule Name
  0.488,                                  ! ASHRAE Taub {dimensionless}
  1.95;                                   ! ASHRAE Taud {dimensionless}

OS:ComponentData,
  {c91f09e0-643b-4b54-94de-be9a7ec67478}, ! Handle
  Component Data 1,                       ! Name
  {c2fb1f14-11dc-4025-a056-de737cff50a6}, ! UUID
  {181c29b7-d4f9-4791-bfea-378f8dc7176f}, ! Version UUID
  1366307793,                             ! Creation Timestamp
  1366307793,                             ! Version Timestamp
  {70637fe5-cb9e-4dc2-b722-b1f7dc337c49}; ! Name of Object 1

