
OS:Version,
  {56ee4cf1-bd26-4959-8f61-f82236bf681f}, ! Handle
  0.9.3;                                  ! Version Identifier

OS:SizingPeriod:DesignDay,
  {6e0342f4-2fca-45f2-a854-86b650dfeac5}, ! Handle
  Allentown Ann Clg 1% Condns DB=>MWB,    ! Name
  31.2,                                   ! Maximum Dry-Bulb Temperature {C}
  10.7,                                   ! Daily Dry-Bulb Temperature Range {deltaC}
  22.5,                                   ! Humidity Indicating Conditions at Maximum Dry-Bulb {BasedOnField A3}
  99927,                                  ! Barometric Pressure {Pa}
  4.6,                                    ! Wind Speed {m/s}
  240,                                    ! Wind Direction {deg}
  0,                                      ! Sky Clearness
  0,                                      ! Rain Indicator
  0,                                      ! Snow Indicator
  21,                                     ! Day of Month
  7,                                      ! Month
  SummerDesignDay,                        ! Day Type
  0,                                      ! Daylight Saving Time Indicator
  Wetbulb,                                ! Humidity Indicating Type
  ,                                       ! Humidity Indicating Day Schedule Name
  DefaultMultipliers,                     ! Dry-Bulb Temperature Range Modifier Type
  ,                                       ! Dry-Bulb Temperature Range Modifier Schedule Name
  ASHRAETau,                              ! Solar Model Indicator
  ,                                       ! Beam Solar Day Schedule Name
  ,                                       ! Diffuse Solar Day Schedule Name
  0.504,                                  ! ASHRAE Taub {dimensionless}
  1.885;                                  ! ASHRAE Taud {dimensionless}

OS:ComponentData,
  {0ec37272-01ef-45af-b129-519397891b6d}, ! Handle
  Component Data 1,                       ! Name
  {122fb578-3ee6-42d8-87fa-bf8d1b6cb336}, ! UUID
  {204c973f-da9d-437f-80ed-0778a0e3b475}, ! Version UUID
  1366310126,                             ! Creation Timestamp
  1366310126,                             ! Version Timestamp
  {6e0342f4-2fca-45f2-a854-86b650dfeac5}; ! Name of Object 1

