
OS:Version,
  {60d82dad-bcb6-448c-8dc4-b7ce9c6c7601}, ! Handle
  0.9.3;                                  ! Version Identifier

OS:SizingPeriod:DesignDay,
  {c0cfb971-c595-4d06-af83-e7dd3be4e843}, ! Handle
  Jackson Julian Carroll Ap Ann Clg .4% Condns WB=>MDB, ! Name
  30,                                     ! Maximum Dry-Bulb Temperature {C}
  9.5,                                    ! Daily Dry-Bulb Temperature Range {deltaC}
  24.9,                                   ! Humidity Indicating Conditions at Maximum Dry-Bulb {BasedOnField A3}
  96426,                                  ! Barometric Pressure {Pa}
  2.2,                                    ! Wind Speed {m/s}
  230,                                    ! Wind Direction {deg}
  0,                                      ! Sky Clearness
  0,                                      ! Rain Indicator
  0,                                      ! Snow Indicator
  21,                                     ! Day of Month
  7,                                      ! Month
  SummerDesignDay,                        ! Day Type
  0,                                      ! Daylight Saving Time Indicator
  Wetbulb,                                ! Humidity Indicating Type
  ,                                       ! Humidity Indicating Day Schedule Name
  DefaultMultipliers,                     ! Dry-Bulb Temperature Range Modifier Type
  ,                                       ! Dry-Bulb Temperature Range Modifier Schedule Name
  ASHRAETau,                              ! Solar Model Indicator
  ,                                       ! Beam Solar Day Schedule Name
  ,                                       ! Diffuse Solar Day Schedule Name
  0.493,                                  ! ASHRAE Taub {dimensionless}
  1.907;                                  ! ASHRAE Taud {dimensionless}

OS:ComponentData,
  {489b57a9-9732-4e66-ab22-526230be5d78}, ! Handle
  Component Data 1,                       ! Name
  {c20031b6-421c-437f-9020-be5d55788062}, ! UUID
  {9f59b53a-01f8-447b-8fe9-629af85aafe0}, ! Version UUID
  1366307644,                             ! Creation Timestamp
  1366307644,                             ! Version Timestamp
  {c0cfb971-c595-4d06-af83-e7dd3be4e843}; ! Name of Object 1

