
OS:Version,
  {784ec708-c3ae-4d45-957f-96df15286c9b}, ! Handle
  0.9.3;                                  ! Version Identifier

OS:SizingPeriod:DesignDay,
  {0f604e2e-bdea-4ac8-bab0-628a4a72cb14}, ! Handle
  Charles City Ann Clg 1% Condns Enth=>MDB, ! Name
  29.1,                                   ! Maximum Dry-Bulb Temperature {C}
  10.4,                                   ! Daily Dry-Bulb Temperature Range {deltaC}
  81100,                                  ! Humidity Indicating Conditions at Maximum Dry-Bulb {BasedOnField A3}
  97272,                                  ! Barometric Pressure {Pa}
  5.1,                                    ! Wind Speed {m/s}
  190,                                    ! Wind Direction {deg}
  0,                                      ! Sky Clearness
  0,                                      ! Rain Indicator
  0,                                      ! Snow Indicator
  21,                                     ! Day of Month
  7,                                      ! Month
  SummerDesignDay,                        ! Day Type
  0,                                      ! Daylight Saving Time Indicator
  Enthalpy,                               ! Humidity Indicating Type
  ,                                       ! Humidity Indicating Day Schedule Name
  DefaultMultipliers,                     ! Dry-Bulb Temperature Range Modifier Type
  ,                                       ! Dry-Bulb Temperature Range Modifier Schedule Name
  ASHRAETau,                              ! Solar Model Indicator
  ,                                       ! Beam Solar Day Schedule Name
  ,                                       ! Diffuse Solar Day Schedule Name
  0.414,                                  ! ASHRAE Taub {dimensionless}
  2.191;                                  ! ASHRAE Taud {dimensionless}

OS:ComponentData,
  {84d88c20-49f6-4eab-a2c0-028e07be3330}, ! Handle
  Component Data 1,                       ! Name
  {07930c11-878d-4612-898e-d2015fcd3a34}, ! UUID
  {26ad7d53-7363-464f-ae42-77ec938a3ca5}, ! Version UUID
  1366307156,                             ! Creation Timestamp
  1366307156,                             ! Version Timestamp
  {0f604e2e-bdea-4ac8-bab0-628a4a72cb14}; ! Name of Object 1

