
OS:Version,
  {de81a6a6-9a1e-4e5a-9ced-e2a637f931cc}, ! Handle
  0.9.3;                                  ! Version Identifier

OS:SizingPeriod:DesignDay,
  {2342d403-8d74-467f-9c3f-fd8b90c961c9}, ! Handle
  Augusta Ann Clg .4% Condns DB=>MWB,     ! Name
  36.2,                                   ! Maximum Dry-Bulb Temperature {C}
  11.7,                                   ! Daily Dry-Bulb Temperature Range {deltaC}
  24.6,                                   ! Humidity Indicating Conditions at Maximum Dry-Bulb {BasedOnField A3}
  100786,                                 ! Barometric Pressure {Pa}
  3.8,                                    ! Wind Speed {m/s}
  240,                                    ! Wind Direction {deg}
  0,                                      ! Sky Clearness
  0,                                      ! Rain Indicator
  0,                                      ! Snow Indicator
  21,                                     ! Day of Month
  7,                                      ! Month
  SummerDesignDay,                        ! Day Type
  0,                                      ! Daylight Saving Time Indicator
  Wetbulb,                                ! Humidity Indicating Type
  ,                                       ! Humidity Indicating Day Schedule Name
  DefaultMultipliers,                     ! Dry-Bulb Temperature Range Modifier Type
  ,                                       ! Dry-Bulb Temperature Range Modifier Schedule Name
  ASHRAETau,                              ! Solar Model Indicator
  ,                                       ! Beam Solar Day Schedule Name
  ,                                       ! Diffuse Solar Day Schedule Name
  0.559,                                  ! ASHRAE Taub {dimensionless}
  1.788;                                  ! ASHRAE Taud {dimensionless}

OS:ComponentData,
  {ef6b0189-35df-407e-b0df-b47b9eb9977a}, ! Handle
  Component Data 1,                       ! Name
  {5b36fd14-d068-40c1-bd9a-f922d48b212f}, ! UUID
  {5b8c41ed-9785-4382-abc3-514a116758d4}, ! Version UUID
  1366306984,                             ! Creation Timestamp
  1366306984,                             ! Version Timestamp
  {2342d403-8d74-467f-9c3f-fd8b90c961c9}; ! Name of Object 1

