
OS:Version,
  {2a746f62-a579-45b2-8c8a-b8d340982337}, ! Handle
  0.9.3;                                  ! Version Identifier

OS:SizingPeriod:DesignDay,
  {38ba0c79-ee4c-4937-8865-a4231ef417d0}, ! Handle
  Carlsbad Palomar Ann Htg Wind 99% Condns WS=>MCDB, ! Name
  15.6,                                   ! Maximum Dry-Bulb Temperature {C}
  0,                                      ! Daily Dry-Bulb Temperature Range {deltaC}
  15.6,                                   ! Humidity Indicating Conditions at Maximum Dry-Bulb {BasedOnField A3}
  100129,                                 ! Barometric Pressure {Pa}
  6.7,                                    ! Wind Speed {m/s}
  80,                                     ! Wind Direction {deg}
  0,                                      ! Sky Clearness
  0,                                      ! Rain Indicator
  0,                                      ! Snow Indicator
  21,                                     ! Day of Month
  12,                                     ! Month
  WinterDesignDay,                        ! Day Type
  0,                                      ! Daylight Saving Time Indicator
  Wetbulb,                                ! Humidity Indicating Type
  ,                                       ! Humidity Indicating Day Schedule Name
  DefaultMultipliers,                     ! Dry-Bulb Temperature Range Modifier Type
  ,                                       ! Dry-Bulb Temperature Range Modifier Schedule Name
  ASHRAEClearSky;                         ! Solar Model Indicator

OS:ComponentData,
  {b2c41e15-c5ab-4850-8ef2-65e469abd9dd}, ! Handle
  Component Data 1,                       ! Name
  {e9bd8497-2c36-46c6-8641-83f0c16d4ac1}, ! UUID
  {e8c50990-040f-45a4-b977-59d4ddf7fa05}, ! Version UUID
  1366306402,                             ! Creation Timestamp
  1366306402,                             ! Version Timestamp
  {38ba0c79-ee4c-4937-8865-a4231ef417d0}; ! Name of Object 1

