
OS:Version,
  {06c1df8e-f7a3-4cf7-85fb-21e5475cafec}, ! Handle
  0.9.3;                                  ! Version Identifier

OS:SizingPeriod:DesignDay,
  {98fa3139-9724-49a8-88fb-9bf5879e44ab}, ! Handle
  London Corbin Ap Ann Htg Wind 99% Condns WS=>MCDB, ! Name
  7,                                      ! Maximum Dry-Bulb Temperature {C}
  0,                                      ! Daily Dry-Bulb Temperature Range {deltaC}
  7,                                      ! Humidity Indicating Conditions at Maximum Dry-Bulb {BasedOnField A3}
  97051,                                  ! Barometric Pressure {Pa}
  8.6,                                    ! Wind Speed {m/s}
  260,                                    ! Wind Direction {deg}
  0,                                      ! Sky Clearness
  0,                                      ! Rain Indicator
  0,                                      ! Snow Indicator
  21,                                     ! Day of Month
  1,                                      ! Month
  WinterDesignDay,                        ! Day Type
  0,                                      ! Daylight Saving Time Indicator
  Wetbulb,                                ! Humidity Indicating Type
  ,                                       ! Humidity Indicating Day Schedule Name
  DefaultMultipliers,                     ! Dry-Bulb Temperature Range Modifier Type
  ,                                       ! Dry-Bulb Temperature Range Modifier Schedule Name
  ASHRAEClearSky;                         ! Solar Model Indicator

