
OS:Version,
  {0375965b-8fa8-437e-9e98-8c4b0dd4743e}, ! Handle
  0.9.3;                                  ! Version Identifier

OS:SizingPeriod:DesignDay,
  {f3c0412f-6a30-4e30-8823-888afe8564bf}, ! Handle
  Harrison Faa Ap Ann Clg 1% Condns DP=>MDB, ! Name
  27.4,                                   ! Maximum Dry-Bulb Temperature {C}
  10.7,                                   ! Daily Dry-Bulb Temperature Range {deltaC}
  22.6,                                   ! Humidity Indicating Conditions at Maximum Dry-Bulb {BasedOnField A3}
  96392,                                  ! Barometric Pressure {Pa}
  3.7,                                    ! Wind Speed {m/s}
  180,                                    ! Wind Direction {deg}
  0,                                      ! Sky Clearness
  0,                                      ! Rain Indicator
  0,                                      ! Snow Indicator
  21,                                     ! Day of Month
  7,                                      ! Month
  SummerDesignDay,                        ! Day Type
  0,                                      ! Daylight Saving Time Indicator
  Dewpoint,                               ! Humidity Indicating Type
  ,                                       ! Humidity Indicating Day Schedule Name
  DefaultMultipliers,                     ! Dry-Bulb Temperature Range Modifier Type
  ,                                       ! Dry-Bulb Temperature Range Modifier Schedule Name
  ASHRAETau,                              ! Solar Model Indicator
  ,                                       ! Beam Solar Day Schedule Name
  ,                                       ! Diffuse Solar Day Schedule Name
  0.461,                                  ! ASHRAE Taub {dimensionless}
  2.048;                                  ! ASHRAE Taud {dimensionless}

OS:ComponentData,
  {a581f61f-d8b5-4da6-b049-4dacd8256bbc}, ! Handle
  Component Data 1,                       ! Name
  {1559506b-5d4b-415c-b063-d2563a0e9ff0}, ! UUID
  {21e4ccd2-f24d-42c3-9be5-03638350a837}, ! Version UUID
  1366306216,                             ! Creation Timestamp
  1366306216,                             ! Version Timestamp
  {f3c0412f-6a30-4e30-8823-888afe8564bf}; ! Name of Object 1

