
OS:Version,
  {1f072eb0-6ab3-48a0-aed2-1af4848bdae6}, ! Handle
  0.9.3;                                  ! Version Identifier

OS:SizingPeriod:DesignDay,
  {d8df682a-d89a-4a60-a852-0c66481d620f}, ! Handle
  CHEYENNE Ann Hum_n 99.6% Condns DP=>MCDB, ! Name
  -19.1,                                  ! Maximum Dry-Bulb Temperature {C}
  0,                                      ! Daily Dry-Bulb Temperature Range {deltaC}
  -25.1,                                  ! Humidity Indicating Conditions at Maximum Dry-Bulb {BasedOnField A3}
  80767,                                  ! Barometric Pressure {Pa}
  4.2,                                    ! Wind Speed {m/s}
  0,                                      ! Wind Direction {deg}
  0,                                      ! Sky Clearness
  0,                                      ! Rain Indicator
  0,                                      ! Snow Indicator
  21,                                     ! Day of Month
  12,                                     ! Month
  WinterDesignDay,                        ! Day Type
  0,                                      ! Daylight Saving Time Indicator
  Dewpoint,                               ! Humidity Indicating Type
  ,                                       ! Humidity Indicating Day Schedule Name
  DefaultMultipliers,                     ! Dry-Bulb Temperature Range Modifier Type
  ,                                       ! Dry-Bulb Temperature Range Modifier Schedule Name
  ASHRAEClearSky;                         ! Solar Model Indicator

OS:ComponentData,
  {e9e2eca6-996c-4445-adf5-2e876c3b9e49}, ! Handle
  Component Data 1,                       ! Name
  {7a2f48f2-553e-4805-b143-419ad28d6618}, ! UUID
  {e16aafd0-833a-4db2-bc7d-3afd7ac366de}, ! Version UUID
  1366311700,                             ! Creation Timestamp
  1366311700,                             ! Version Timestamp
  {d8df682a-d89a-4a60-a852-0c66481d620f}; ! Name of Object 1

