
OS:Version,
  {49d2b89a-20d1-4b0e-a4c3-26ee0f0e38a3}, ! Handle
  0.9.3;                                  ! Version Identifier

OS:SizingPeriod:DesignDay,
  {504ba9ef-0a30-4dda-9866-028380ea71ee}, ! Handle
  Denver-Stapleton Ann Clg .4% Condns DB=>MWB, ! Name
  34.1,                                   ! Maximum Dry-Bulb Temperature {C}
  15.2,                                   ! Daily Dry-Bulb Temperature Range {deltaC}
  15.9,                                   ! Humidity Indicating Conditions at Maximum Dry-Bulb {BasedOnField A3}
  83411,                                  ! Barometric Pressure {Pa}
  4,                                      ! Wind Speed {m/s}
  120,                                    ! Wind Direction {deg}
  0,                                      ! Sky Clearness
  0,                                      ! Rain Indicator
  0,                                      ! Snow Indicator
  21,                                     ! Day of Month
  7,                                      ! Month
  SummerDesignDay,                        ! Day Type
  0,                                      ! Daylight Saving Time Indicator
  Wetbulb,                                ! Humidity Indicating Type
  ,                                       ! Humidity Indicating Day Schedule Name
  DefaultMultipliers,                     ! Dry-Bulb Temperature Range Modifier Type
  ,                                       ! Dry-Bulb Temperature Range Modifier Schedule Name
  ASHRAETau,                              ! Solar Model Indicator
  ,                                       ! Beam Solar Day Schedule Name
  ,                                       ! Diffuse Solar Day Schedule Name
  0.435,                                  ! ASHRAE Taub {dimensionless}
  1.996;                                  ! ASHRAE Taud {dimensionless}

OS:ComponentData,
  {e722ae6a-58e9-4183-b0e8-681ddf7fbc81}, ! Handle
  Component Data 1,                       ! Name
  {80e9c753-4caa-428c-b6e7-83c55fbdbcaa}, ! UUID
  {8b827a42-8886-48e9-875f-4379be0bf7b1}, ! Version UUID
  1366306673,                             ! Creation Timestamp
  1366306673,                             ! Version Timestamp
  {504ba9ef-0a30-4dda-9866-028380ea71ee}; ! Name of Object 1

