
OS:Version,
  {3d643274-b593-4251-b2e2-cb3f52c9108a}, ! Handle
  0.9.3;                                  ! Version Identifier

OS:SizingPeriod:DesignDay,
  {be6b937a-6fe8-4547-a2ec-bdae5f167dea}, ! Handle
  Fort Bragg Simmons Aaf Ann Clg .4% Condns WB=>MDB, ! Name
  32.4,                                   ! Maximum Dry-Bulb Temperature {C}
  9.9,                                    ! Daily Dry-Bulb Temperature Range {deltaC}
  26.2,                                   ! Humidity Indicating Conditions at Maximum Dry-Bulb {BasedOnField A3}
  100213,                                 ! Barometric Pressure {Pa}
  3,                                      ! Wind Speed {m/s}
  210,                                    ! Wind Direction {deg}
  0,                                      ! Sky Clearness
  0,                                      ! Rain Indicator
  0,                                      ! Snow Indicator
  21,                                     ! Day of Month
  7,                                      ! Month
  SummerDesignDay,                        ! Day Type
  0,                                      ! Daylight Saving Time Indicator
  Wetbulb,                                ! Humidity Indicating Type
  ,                                       ! Humidity Indicating Day Schedule Name
  DefaultMultipliers,                     ! Dry-Bulb Temperature Range Modifier Type
  ,                                       ! Dry-Bulb Temperature Range Modifier Schedule Name
  ASHRAETau,                              ! Solar Model Indicator
  ,                                       ! Beam Solar Day Schedule Name
  ,                                       ! Diffuse Solar Day Schedule Name
  0.582,                                  ! ASHRAE Taub {dimensionless}
  1.716;                                  ! ASHRAE Taud {dimensionless}

OS:ComponentData,
  {81c3a5b2-7261-463f-a512-2119bb1463dc}, ! Handle
  Component Data 1,                       ! Name
  {9f205f91-7411-4c17-9646-e32ae28430ab}, ! UUID
  {77203abd-42b1-4025-986a-3cd35ddc30f3}, ! Version UUID
  1366308920,                             ! Creation Timestamp
  1366308920,                             ! Version Timestamp
  {be6b937a-6fe8-4547-a2ec-bdae5f167dea}; ! Name of Object 1

