
OS:Version,
  {c767c3a3-7eb4-49b7-9b6d-50812f930448}, ! Handle
  0.9.3;                                  ! Version Identifier

OS:SizingPeriod:DesignDay,
  {ac553d1d-5f78-45de-9ea8-4a29d42cf4b1}, ! Handle
  Anchorage Elmendorf Ann Htg 99.6% Condns DB, ! Name
  -26,                                    ! Maximum Dry-Bulb Temperature {C}
  0,                                      ! Daily Dry-Bulb Temperature Range {deltaC}
  -26,                                    ! Humidity Indicating Conditions at Maximum Dry-Bulb {BasedOnField A3}
  100618,                                 ! Barometric Pressure {Pa}
  2.2,                                    ! Wind Speed {m/s}
  50,                                     ! Wind Direction {deg}
  0,                                      ! Sky Clearness
  0,                                      ! Rain Indicator
  0,                                      ! Snow Indicator
  21,                                     ! Day of Month
  1,                                      ! Month
  WinterDesignDay,                        ! Day Type
  0,                                      ! Daylight Saving Time Indicator
  Wetbulb,                                ! Humidity Indicating Type
  ,                                       ! Humidity Indicating Day Schedule Name
  DefaultMultipliers,                     ! Dry-Bulb Temperature Range Modifier Type
  ,                                       ! Dry-Bulb Temperature Range Modifier Schedule Name
  ASHRAEClearSky;                         ! Solar Model Indicator

