
OS:Version,
  {478b8694-eb57-4198-8ae3-bc0733288b5a}, ! Handle
  0.9.3;                                  ! Version Identifier

OS:SizingPeriod:DesignDay,
  {9da0e937-8f43-4e34-ba3f-9bd34c059a47}, ! Handle
  International Falls Intl Ap Ann Clg 1% Condns Enth=>MDB, ! Name
  26,                                     ! Maximum Dry-Bulb Temperature {C}
  12.4,                                   ! Daily Dry-Bulb Temperature Range {deltaC}
  64100,                                  ! Humidity Indicating Conditions at Maximum Dry-Bulb {BasedOnField A3}
  97086,                                  ! Barometric Pressure {Pa}
  4.7,                                    ! Wind Speed {m/s}
  200,                                    ! Wind Direction {deg}
  0,                                      ! Sky Clearness
  0,                                      ! Rain Indicator
  0,                                      ! Snow Indicator
  21,                                     ! Day of Month
  7,                                      ! Month
  SummerDesignDay,                        ! Day Type
  0,                                      ! Daylight Saving Time Indicator
  Enthalpy,                               ! Humidity Indicating Type
  ,                                       ! Humidity Indicating Day Schedule Name
  DefaultMultipliers,                     ! Dry-Bulb Temperature Range Modifier Type
  ,                                       ! Dry-Bulb Temperature Range Modifier Schedule Name
  ASHRAETau,                              ! Solar Model Indicator
  ,                                       ! Beam Solar Day Schedule Name
  ,                                       ! Diffuse Solar Day Schedule Name
  0.405,                                  ! ASHRAE Taub {dimensionless}
  2.2;                                    ! ASHRAE Taud {dimensionless}

OS:ComponentData,
  {889ce0c5-371b-4b65-8844-d59199f030e6}, ! Handle
  Component Data 1,                       ! Name
  {d861818d-9e47-4f23-b028-4a10e88c522f}, ! UUID
  {a5b2e69b-a4de-4f84-9655-5c887a7115d4}, ! Version UUID
  1366308278,                             ! Creation Timestamp
  1366308278,                             ! Version Timestamp
  {9da0e937-8f43-4e34-ba3f-9bd34c059a47}; ! Name of Object 1

