
OS:Version,
  {df378b02-2bde-431d-bc77-3e243dbdbf16}, ! Handle
  0.9.3;                                  ! Version Identifier

OS:SizingPeriod:DesignDay,
  {c0f3676b-41cb-4f3a-8d33-f3b1a921dc80}, ! Handle
  Golden Tri Awos Ann Clg 2% Condns DB=>MWB, ! Name
  33,                                     ! Maximum Dry-Bulb Temperature {C}
  11.4,                                   ! Daily Dry-Bulb Temperature Range {deltaC}
  24.6,                                   ! Humidity Indicating Conditions at Maximum Dry-Bulb {BasedOnField A3}
  100368,                                 ! Barometric Pressure {Pa}
  2.3,                                    ! Wind Speed {m/s}
  0,                                      ! Wind Direction {deg}
  0,                                      ! Sky Clearness
  0,                                      ! Rain Indicator
  0,                                      ! Snow Indicator
  21,                                     ! Day of Month
  7,                                      ! Month
  SummerDesignDay,                        ! Day Type
  0,                                      ! Daylight Saving Time Indicator
  Wetbulb,                                ! Humidity Indicating Type
  ,                                       ! Humidity Indicating Day Schedule Name
  DefaultMultipliers,                     ! Dry-Bulb Temperature Range Modifier Type
  ,                                       ! Dry-Bulb Temperature Range Modifier Schedule Name
  ASHRAETau,                              ! Solar Model Indicator
  ,                                       ! Beam Solar Day Schedule Name
  ,                                       ! Diffuse Solar Day Schedule Name
  0.565,                                  ! ASHRAE Taub {dimensionless}
  1.764;                                  ! ASHRAE Taud {dimensionless}

OS:ComponentData,
  {485c01a8-ee89-4b0a-88d7-8b891de49d01}, ! Handle
  Component Data 1,                       ! Name
  {3325c1ad-e7d6-478a-9a81-8ff30475e956}, ! UUID
  {25c4ca34-3880-4b74-b30e-c998d78f2bb5}, ! Version UUID
  1366308618,                             ! Creation Timestamp
  1366308618,                             ! Version Timestamp
  {c0f3676b-41cb-4f3a-8d33-f3b1a921dc80}; ! Name of Object 1

