
OS:Version,
  {265ca923-32be-4dc3-816c-c0287b0a2620}, ! Handle
  0.9.3;                                  ! Version Identifier

OS:SizingPeriod:DesignDay,
  {6f12f30c-58a7-4054-b76d-78b097ccbb24}, ! Handle
  Houston Bush Intercontinental Ann Hum_n 99% Condns DP=>MCDB, ! Name
  5.5,                                    ! Maximum Dry-Bulb Temperature {C}
  0,                                      ! Daily Dry-Bulb Temperature Range {deltaC}
  -6.5,                                   ! Humidity Indicating Conditions at Maximum Dry-Bulb {BasedOnField A3}
  100977,                                 ! Barometric Pressure {Pa}
  2.8,                                    ! Wind Speed {m/s}
  0,                                      ! Wind Direction {deg}
  0,                                      ! Sky Clearness
  0,                                      ! Rain Indicator
  0,                                      ! Snow Indicator
  21,                                     ! Day of Month
  1,                                      ! Month
  WinterDesignDay,                        ! Day Type
  0,                                      ! Daylight Saving Time Indicator
  Dewpoint,                               ! Humidity Indicating Type
  ,                                       ! Humidity Indicating Day Schedule Name
  DefaultMultipliers,                     ! Dry-Bulb Temperature Range Modifier Type
  ,                                       ! Dry-Bulb Temperature Range Modifier Schedule Name
  ASHRAEClearSky;                         ! Solar Model Indicator

OS:ComponentData,
  {f9361c1f-3d68-4623-a012-8c40b52a72cb}, ! Handle
  Component Data 1,                       ! Name
  {830c53fe-b09b-4ee9-a3ea-de2923a77b0f}, ! UUID
  {e80a0749-9370-4b49-a2bd-bc23c05bb8a3}, ! Version UUID
  1366310743,                             ! Creation Timestamp
  1366310743,                             ! Version Timestamp
  {6f12f30c-58a7-4054-b76d-78b097ccbb24}; ! Name of Object 1

