
OS:Version,
  {8b64da2f-e95b-43ff-9d67-7e396a77f2dc}, ! Handle
  0.9.3;                                  ! Version Identifier

OS:SizingPeriod:DesignDay,
  {57e66d91-3e93-43a2-b82e-3790f3ad1be6}, ! Handle
  Columbus Muni Ann Htg Wind 99.6% Condns WS=>MCDB, ! Name
  -9.2,                                   ! Maximum Dry-Bulb Temperature {C}
  0,                                      ! Daily Dry-Bulb Temperature Range {deltaC}
  -9.2,                                   ! Humidity Indicating Conditions at Maximum Dry-Bulb {BasedOnField A3}
  96023,                                  ! Barometric Pressure {Pa}
  15.1,                                   ! Wind Speed {m/s}
  320,                                    ! Wind Direction {deg}
  0,                                      ! Sky Clearness
  0,                                      ! Rain Indicator
  0,                                      ! Snow Indicator
  21,                                     ! Day of Month
  1,                                      ! Month
  WinterDesignDay,                        ! Day Type
  0,                                      ! Daylight Saving Time Indicator
  Wetbulb,                                ! Humidity Indicating Type
  ,                                       ! Humidity Indicating Day Schedule Name
  DefaultMultipliers,                     ! Dry-Bulb Temperature Range Modifier Type
  ,                                       ! Dry-Bulb Temperature Range Modifier Schedule Name
  ASHRAEClearSky;                         ! Solar Model Indicator

OS:ComponentData,
  {3eb18dba-88c9-4fa8-baa7-51b4bdd325c2}, ! Handle
  Component Data 1,                       ! Name
  {0fceb4a6-2762-49be-9ef1-a670d9556396}, ! UUID
  {c0444c58-3b02-4b0a-b5cc-ca2178858063}, ! Version UUID
  1366309096,                             ! Creation Timestamp
  1366309096,                             ! Version Timestamp
  {57e66d91-3e93-43a2-b82e-3790f3ad1be6}; ! Name of Object 1

