
OS:Version,
  {e478ae28-5bb7-4201-8e22-b7a4564b363f}, ! Handle
  0.9.3;                                  ! Version Identifier

OS:SizingPeriod:DesignDay,
  {ed249b3e-d1f4-478b-a438-674bb411a802}, ! Handle
  Bradford Regional Ap Ann Clg 1% Condns Enth=>MDB, ! Name
  25,                                     ! Maximum Dry-Bulb Temperature {C}
  11.9,                                   ! Daily Dry-Bulb Temperature Range {deltaC}
  64400,                                  ! Humidity Indicating Conditions at Maximum Dry-Bulb {BasedOnField A3}
  93813,                                  ! Barometric Pressure {Pa}
  4.1,                                    ! Wind Speed {m/s}
  270,                                    ! Wind Direction {deg}
  0,                                      ! Sky Clearness
  0,                                      ! Rain Indicator
  0,                                      ! Snow Indicator
  21,                                     ! Day of Month
  7,                                      ! Month
  SummerDesignDay,                        ! Day Type
  0,                                      ! Daylight Saving Time Indicator
  Enthalpy,                               ! Humidity Indicating Type
  ,                                       ! Humidity Indicating Day Schedule Name
  DefaultMultipliers,                     ! Dry-Bulb Temperature Range Modifier Type
  ,                                       ! Dry-Bulb Temperature Range Modifier Schedule Name
  ASHRAETau,                              ! Solar Model Indicator
  ,                                       ! Beam Solar Day Schedule Name
  ,                                       ! Diffuse Solar Day Schedule Name
  0.423,                                  ! ASHRAE Taub {dimensionless}
  2.114;                                  ! ASHRAE Taud {dimensionless}

OS:ComponentData,
  {221c26d2-4655-4a4a-a5cd-7ae426bf091b}, ! Handle
  Component Data 1,                       ! Name
  {caa69606-c5c5-4a5e-8f4f-2304a285535d}, ! UUID
  {e7dda43e-a165-4470-b6a7-e0c533842e25}, ! Version UUID
  1366310151,                             ! Creation Timestamp
  1366310151,                             ! Version Timestamp
  {ed249b3e-d1f4-478b-a438-674bb411a802}; ! Name of Object 1

