
OS:Version,
  {bd438443-fa60-42c6-9a66-b0a3821a178d}, ! Handle
  0.9.3;                                  ! Version Identifier

OS:SizingPeriod:DesignDay,
  {3d69d7c1-b771-439e-b679-452d0df6d4e0}, ! Handle
  Burley Municipal Arpt Ann Clg .4% Condns WB=>MDB, ! Name
  30.6,                                   ! Maximum Dry-Bulb Temperature {C}
  16.9,                                   ! Daily Dry-Bulb Temperature Range {deltaC}
  19.4,                                   ! Humidity Indicating Conditions at Maximum Dry-Bulb {BasedOnField A3}
  87002,                                  ! Barometric Pressure {Pa}
  3,                                      ! Wind Speed {m/s}
  270,                                    ! Wind Direction {deg}
  0,                                      ! Sky Clearness
  0,                                      ! Rain Indicator
  0,                                      ! Snow Indicator
  21,                                     ! Day of Month
  7,                                      ! Month
  SummerDesignDay,                        ! Day Type
  0,                                      ! Daylight Saving Time Indicator
  Wetbulb,                                ! Humidity Indicating Type
  ,                                       ! Humidity Indicating Day Schedule Name
  DefaultMultipliers,                     ! Dry-Bulb Temperature Range Modifier Type
  ,                                       ! Dry-Bulb Temperature Range Modifier Schedule Name
  ASHRAETau,                              ! Solar Model Indicator
  ,                                       ! Beam Solar Day Schedule Name
  ,                                       ! Diffuse Solar Day Schedule Name
  0.429,                                  ! ASHRAE Taub {dimensionless}
  1.956;                                  ! ASHRAE Taud {dimensionless}

