
OS:Version,
  {1ec12587-a398-4150-ab0a-177fba15598c}, ! Handle
  0.9.3;                                  ! Version Identifier

OS:SizingPeriod:DesignDay,
  {6d93821f-468b-4156-827a-8513a7441134}, ! Handle
  Davis Monthan Afb Ann Clg .4% Condns Enth=>MDB, ! Name
  29.6,                                   ! Maximum Dry-Bulb Temperature {C}
  13.3,                                   ! Daily Dry-Bulb Temperature Range {deltaC}
  71000,                                  ! Humidity Indicating Conditions at Maximum Dry-Bulb {BasedOnField A3}
  91976,                                  ! Barometric Pressure {Pa}
  4.8,                                    ! Wind Speed {m/s}
  310,                                    ! Wind Direction {deg}
  0,                                      ! Sky Clearness
  0,                                      ! Rain Indicator
  0,                                      ! Snow Indicator
  21,                                     ! Day of Month
  7,                                      ! Month
  SummerDesignDay,                        ! Day Type
  0,                                      ! Daylight Saving Time Indicator
  Enthalpy,                               ! Humidity Indicating Type
  ,                                       ! Humidity Indicating Day Schedule Name
  DefaultMultipliers,                     ! Dry-Bulb Temperature Range Modifier Type
  ,                                       ! Dry-Bulb Temperature Range Modifier Schedule Name
  ASHRAETau,                              ! Solar Model Indicator
  ,                                       ! Beam Solar Day Schedule Name
  ,                                       ! Diffuse Solar Day Schedule Name
  0.555,                                  ! ASHRAE Taub {dimensionless}
  1.729;                                  ! ASHRAE Taud {dimensionless}

OS:ComponentData,
  {a3f7b211-b75d-4e3f-9389-cef4abb16012}, ! Handle
  Component Data 1,                       ! Name
  {a823ad5a-705e-45f7-9de8-e46b60f3f9a9}, ! UUID
  {8369c149-a778-46bc-80ac-ca3c27fb6887}, ! Version UUID
  1366306264,                             ! Creation Timestamp
  1366306264,                             ! Version Timestamp
  {6d93821f-468b-4156-827a-8513a7441134}; ! Name of Object 1

