
OS:Version,
  {ab57b117-0b56-4814-bc7d-eb04c2012da4}, ! Handle
  0.9.3;                                  ! Version Identifier

OS:SizingPeriod:DesignDay,
  {1fd2a810-3e9b-46f2-b901-21193ad3234e}, ! Handle
  Fort Sill Post Field Af Ann Clg 2% Condns Enth=>MDB, ! Name
  31.3,                                   ! Maximum Dry-Bulb Temperature {C}
  11.8,                                   ! Daily Dry-Bulb Temperature Range {deltaC}
  74300,                                  ! Humidity Indicating Conditions at Maximum Dry-Bulb {BasedOnField A3}
  96970,                                  ! Barometric Pressure {Pa}
  4.9,                                    ! Wind Speed {m/s}
  170,                                    ! Wind Direction {deg}
  0,                                      ! Sky Clearness
  0,                                      ! Rain Indicator
  0,                                      ! Snow Indicator
  21,                                     ! Day of Month
  7,                                      ! Month
  SummerDesignDay,                        ! Day Type
  0,                                      ! Daylight Saving Time Indicator
  Enthalpy,                               ! Humidity Indicating Type
  ,                                       ! Humidity Indicating Day Schedule Name
  DefaultMultipliers,                     ! Dry-Bulb Temperature Range Modifier Type
  ,                                       ! Dry-Bulb Temperature Range Modifier Schedule Name
  ASHRAETau,                              ! Solar Model Indicator
  ,                                       ! Beam Solar Day Schedule Name
  ,                                       ! Diffuse Solar Day Schedule Name
  0.432,                                  ! ASHRAE Taub {dimensionless}
  2.178;                                  ! ASHRAE Taud {dimensionless}

OS:ComponentData,
  {1fa7a7fd-a944-4ea0-a743-5c6a17946f06}, ! Handle
  Component Data 1,                       ! Name
  {97450916-4ff0-453c-b083-652ae6c0228b}, ! UUID
  {b6ca94aa-2ec0-4b9e-96bb-c14b87d60355}, ! Version UUID
  1366309891,                             ! Creation Timestamp
  1366309891,                             ! Version Timestamp
  {1fd2a810-3e9b-46f2-b901-21193ad3234e}; ! Name of Object 1

