
OS:Version,
  {99d3e4ce-e891-4203-9e1a-f056046b9ea3}, ! Handle
  0.9.3;                                  ! Version Identifier

OS:SizingPeriod:DesignDay,
  {6194a0e1-c4a0-4dfb-ae9b-40dd66da65ff}, ! Handle
  Longview Gregg County Ap  Ove Ann Clg 2% Condns WB=>MDB, ! Name
  31.3,                                   ! Maximum Dry-Bulb Temperature {C}
  11.6,                                   ! Daily Dry-Bulb Temperature Range {deltaC}
  25.3,                                   ! Humidity Indicating Conditions at Maximum Dry-Bulb {BasedOnField A3}
  99583,                                  ! Barometric Pressure {Pa}
  3.5,                                    ! Wind Speed {m/s}
  200,                                    ! Wind Direction {deg}
  0,                                      ! Sky Clearness
  0,                                      ! Rain Indicator
  0,                                      ! Snow Indicator
  21,                                     ! Day of Month
  8,                                      ! Month
  SummerDesignDay,                        ! Day Type
  0,                                      ! Daylight Saving Time Indicator
  Wetbulb,                                ! Humidity Indicating Type
  ,                                       ! Humidity Indicating Day Schedule Name
  DefaultMultipliers,                     ! Dry-Bulb Temperature Range Modifier Type
  ,                                       ! Dry-Bulb Temperature Range Modifier Schedule Name
  ASHRAETau,                              ! Solar Model Indicator
  ,                                       ! Beam Solar Day Schedule Name
  ,                                       ! Diffuse Solar Day Schedule Name
  0.491,                                  ! ASHRAE Taub {dimensionless}
  1.993;                                  ! ASHRAE Taud {dimensionless}

OS:ComponentData,
  {6e9d91a5-2470-4978-b1b3-7fd29f03f5a7}, ! Handle
  Component Data 1,                       ! Name
  {d3c3ce48-2b3a-4d1c-a7a4-27543e5839e4}, ! UUID
  {c0067eb7-d3ed-4c9b-b185-5730c53a0380}, ! Version UUID
  1366310788,                             ! Creation Timestamp
  1366310788,                             ! Version Timestamp
  {6194a0e1-c4a0-4dfb-ae9b-40dd66da65ff}; ! Name of Object 1

