
OS:Version,
  {52315430-5472-4633-b877-2a430265170c}, ! Handle
  0.9.3;                                  ! Version Identifier

OS:SizingPeriod:DesignDay,
  {6d8cb026-0f62-4b64-81d6-0ed9a23e3742}, ! Handle
  Augusta Ann Clg 1% Condns DP=>MDB,      ! Name
  28.1,                                   ! Maximum Dry-Bulb Temperature {C}
  11.7,                                   ! Daily Dry-Bulb Temperature Range {deltaC}
  24.1,                                   ! Humidity Indicating Conditions at Maximum Dry-Bulb {BasedOnField A3}
  100786,                                 ! Barometric Pressure {Pa}
  3.8,                                    ! Wind Speed {m/s}
  240,                                    ! Wind Direction {deg}
  0,                                      ! Sky Clearness
  0,                                      ! Rain Indicator
  0,                                      ! Snow Indicator
  21,                                     ! Day of Month
  7,                                      ! Month
  SummerDesignDay,                        ! Day Type
  0,                                      ! Daylight Saving Time Indicator
  Dewpoint,                               ! Humidity Indicating Type
  ,                                       ! Humidity Indicating Day Schedule Name
  DefaultMultipliers,                     ! Dry-Bulb Temperature Range Modifier Type
  ,                                       ! Dry-Bulb Temperature Range Modifier Schedule Name
  ASHRAETau,                              ! Solar Model Indicator
  ,                                       ! Beam Solar Day Schedule Name
  ,                                       ! Diffuse Solar Day Schedule Name
  0.559,                                  ! ASHRAE Taub {dimensionless}
  1.788;                                  ! ASHRAE Taud {dimensionless}

OS:ComponentData,
  {578c71cf-5b8a-4030-b968-83138de241c6}, ! Handle
  Component Data 1,                       ! Name
  {ebeac581-fcdf-4825-889c-0a4f033c53f5}, ! UUID
  {d8f876da-cd0a-4be6-be15-f2a314336a7a}, ! Version UUID
  1366306985,                             ! Creation Timestamp
  1366306985,                             ! Version Timestamp
  {6d8cb026-0f62-4b64-81d6-0ed9a23e3742}; ! Name of Object 1

