
OS:Version,
  {eb01706b-0e36-44a5-a595-5cb8aa676129}, ! Handle
  0.9.3;                                  ! Version Identifier

OS:SizingPeriod:DesignDay,
  {79682c99-e2fa-4f22-8064-224725880c1c}, ! Handle
  CHEYENNE Ann Clg 1% Condns WB=>MDB,     ! Name
  24.9,                                   ! Maximum Dry-Bulb Temperature {C}
  14.6,                                   ! Daily Dry-Bulb Temperature Range {deltaC}
  16.5,                                   ! Humidity Indicating Conditions at Maximum Dry-Bulb {BasedOnField A3}
  80767,                                  ! Barometric Pressure {Pa}
  5.3,                                    ! Wind Speed {m/s}
  170,                                    ! Wind Direction {deg}
  0,                                      ! Sky Clearness
  0,                                      ! Rain Indicator
  0,                                      ! Snow Indicator
  21,                                     ! Day of Month
  7,                                      ! Month
  SummerDesignDay,                        ! Day Type
  0,                                      ! Daylight Saving Time Indicator
  Wetbulb,                                ! Humidity Indicating Type
  ,                                       ! Humidity Indicating Day Schedule Name
  DefaultMultipliers,                     ! Dry-Bulb Temperature Range Modifier Type
  ,                                       ! Dry-Bulb Temperature Range Modifier Schedule Name
  ASHRAETau,                              ! Solar Model Indicator
  ,                                       ! Beam Solar Day Schedule Name
  ,                                       ! Diffuse Solar Day Schedule Name
  0.404,                                  ! ASHRAE Taub {dimensionless}
  2.038;                                  ! ASHRAE Taud {dimensionless}

OS:ComponentData,
  {0b851c86-783f-45fe-b51d-e26e0acb8ea7}, ! Handle
  Component Data 1,                       ! Name
  {aaf9020a-50a9-44a9-8e02-05d6281606f5}, ! UUID
  {05287ce1-62d4-48be-9225-31f550c7f3b8}, ! Version UUID
  1366311701,                             ! Creation Timestamp
  1366311701,                             ! Version Timestamp
  {79682c99-e2fa-4f22-8064-224725880c1c}; ! Name of Object 1

