
OS:Version,
  {15aec47f-4b65-4f6a-ace4-5edd57a21c8e}, ! Handle
  0.9.3;                                  ! Version Identifier

OS:SizingPeriod:DesignDay,
  {44aaa67a-f286-4a83-8318-40d16387364c}, ! Handle
  Houston Ellington Afb  Clear Ann Htg 99% Condns DB, ! Name
  2.3,                                    ! Maximum Dry-Bulb Temperature {C}
  0,                                      ! Daily Dry-Bulb Temperature Range {deltaC}
  2.3,                                    ! Humidity Indicating Conditions at Maximum Dry-Bulb {BasedOnField A3}
  101253,                                 ! Barometric Pressure {Pa}
  4,                                      ! Wind Speed {m/s}
  350,                                    ! Wind Direction {deg}
  0,                                      ! Sky Clearness
  0,                                      ! Rain Indicator
  0,                                      ! Snow Indicator
  21,                                     ! Day of Month
  1,                                      ! Month
  WinterDesignDay,                        ! Day Type
  0,                                      ! Daylight Saving Time Indicator
  Wetbulb,                                ! Humidity Indicating Type
  ,                                       ! Humidity Indicating Day Schedule Name
  DefaultMultipliers,                     ! Dry-Bulb Temperature Range Modifier Type
  ,                                       ! Dry-Bulb Temperature Range Modifier Schedule Name
  ASHRAEClearSky;                         ! Solar Model Indicator

OS:ComponentData,
  {8e8a9d91-d843-4178-ae17-a632d63d626d}, ! Handle
  Component Data 1,                       ! Name
  {38542ab0-ba45-453b-b3a6-6fc80cbb7013}, ! UUID
  {f7b7ead4-c5da-4cee-aafa-b11aaf98a00a}, ! Version UUID
  1366310750,                             ! Creation Timestamp
  1366310750,                             ! Version Timestamp
  {44aaa67a-f286-4a83-8318-40d16387364c}; ! Name of Object 1

