
OS:Version,
  {bf13a84f-ba47-45ea-b748-810e1c1a2e4f}, ! Handle
  0.9.3;                                  ! Version Identifier

OS:SizingPeriod:DesignDay,
  {e0875cec-40f0-490c-927b-8064978de543}, ! Handle
  Columbia Ann Clg 2% Condns WB=>MDB,     ! Name
  30.7,                                   ! Maximum Dry-Bulb Temperature {C}
  11.1,                                   ! Daily Dry-Bulb Temperature Range {deltaC}
  24.9,                                   ! Humidity Indicating Conditions at Maximum Dry-Bulb {BasedOnField A3}
  100499,                                 ! Barometric Pressure {Pa}
  3.9,                                    ! Wind Speed {m/s}
  240,                                    ! Wind Direction {deg}
  0,                                      ! Sky Clearness
  0,                                      ! Rain Indicator
  0,                                      ! Snow Indicator
  21,                                     ! Day of Month
  7,                                      ! Month
  SummerDesignDay,                        ! Day Type
  0,                                      ! Daylight Saving Time Indicator
  Wetbulb,                                ! Humidity Indicating Type
  ,                                       ! Humidity Indicating Day Schedule Name
  DefaultMultipliers,                     ! Dry-Bulb Temperature Range Modifier Type
  ,                                       ! Dry-Bulb Temperature Range Modifier Schedule Name
  ASHRAETau,                              ! Solar Model Indicator
  ,                                       ! Beam Solar Day Schedule Name
  ,                                       ! Diffuse Solar Day Schedule Name
  0.566,                                  ! ASHRAE Taub {dimensionless}
  1.764;                                  ! ASHRAE Taud {dimensionless}

OS:ComponentData,
  {9f4878c8-e741-4458-b508-d03402702daa}, ! Handle
  Component Data 1,                       ! Name
  {f47547be-71f2-4d24-9da1-1ea86cc12ead}, ! UUID
  {3e99dcfc-846f-4b6a-a6b1-8b17966e3831}, ! Version UUID
  1366310344,                             ! Creation Timestamp
  1366310344,                             ! Version Timestamp
  {e0875cec-40f0-490c-927b-8064978de543}; ! Name of Object 1

