
OS:Version,
  {33b548f2-731b-49ac-954a-6c85748f2ed2}, ! Handle
  0.9.3;                                  ! Version Identifier

OS:SizingPeriod:DesignDay,
  {02bc18aa-e720-4462-96d9-55c40367d88e}, ! Handle
  BALTIMORE Ann Clg .4% Condns Enth=>MDB, ! Name
  31.7,                                   ! Maximum Dry-Bulb Temperature {C}
  10.4,                                   ! Daily Dry-Bulb Temperature Range {deltaC}
  78700,                                  ! Humidity Indicating Conditions at Maximum Dry-Bulb {BasedOnField A3}
  100762,                                 ! Barometric Pressure {Pa}
  4.6,                                    ! Wind Speed {m/s}
  280,                                    ! Wind Direction {deg}
  0,                                      ! Sky Clearness
  0,                                      ! Rain Indicator
  0,                                      ! Snow Indicator
  21,                                     ! Day of Month
  7,                                      ! Month
  SummerDesignDay,                        ! Day Type
  0,                                      ! Daylight Saving Time Indicator
  Enthalpy,                               ! Humidity Indicating Type
  ,                                       ! Humidity Indicating Day Schedule Name
  DefaultMultipliers,                     ! Dry-Bulb Temperature Range Modifier Type
  ,                                       ! Dry-Bulb Temperature Range Modifier Schedule Name
  ASHRAETau,                              ! Solar Model Indicator
  ,                                       ! Beam Solar Day Schedule Name
  ,                                       ! Diffuse Solar Day Schedule Name
  0.552,                                  ! ASHRAE Taub {dimensionless}
  1.769;                                  ! ASHRAE Taud {dimensionless}

OS:ComponentData,
  {8f96fdd0-143d-4604-9374-d6e801dc6b18}, ! Handle
  Component Data 1,                       ! Name
  {2dee18b6-e0d0-4526-a0dc-ef7178426c01}, ! UUID
  {ef682a8c-a270-4456-9967-654e65e1ad72}, ! Version UUID
  1366307850,                             ! Creation Timestamp
  1366307850,                             ! Version Timestamp
  {02bc18aa-e720-4462-96d9-55c40367d88e}; ! Name of Object 1

