
OS:Version,
  {20f94a0d-54d3-49d2-82d7-d9397b6e06cf}, ! Handle
  0.9.3;                                  ! Version Identifier

OS:SizingPeriod:DesignDay,
  {5417cc08-bf2d-42ee-a553-fde9e47c4501}, ! Handle
  Dallas Love Field Ann Hum_n 99% Condns DP=>MCDB, ! Name
  -0.1,                                   ! Maximum Dry-Bulb Temperature {C}
  0,                                      ! Daily Dry-Bulb Temperature Range {deltaC}
  -10.7,                                  ! Humidity Indicating Conditions at Maximum Dry-Bulb {BasedOnField A3}
  99726,                                  ! Barometric Pressure {Pa}
  4.9,                                    ! Wind Speed {m/s}
  0,                                      ! Wind Direction {deg}
  0,                                      ! Sky Clearness
  0,                                      ! Rain Indicator
  0,                                      ! Snow Indicator
  21,                                     ! Day of Month
  1,                                      ! Month
  WinterDesignDay,                        ! Day Type
  0,                                      ! Daylight Saving Time Indicator
  Dewpoint,                               ! Humidity Indicating Type
  ,                                       ! Humidity Indicating Day Schedule Name
  DefaultMultipliers,                     ! Dry-Bulb Temperature Range Modifier Type
  ,                                       ! Dry-Bulb Temperature Range Modifier Schedule Name
  ASHRAEClearSky;                         ! Solar Model Indicator

OS:ComponentData,
  {5c7a2552-5052-4050-bafe-4a4ea065f089}, ! Handle
  Component Data 1,                       ! Name
  {df8a81e6-0a47-49f1-82bf-11a7e55e38d1}, ! UUID
  {697c374e-967d-4ca2-b68f-0d4743200aa2}, ! Version UUID
  1366310659,                             ! Creation Timestamp
  1366310659,                             ! Version Timestamp
  {5417cc08-bf2d-42ee-a553-fde9e47c4501}; ! Name of Object 1

