
OS:Version,
  {387d5cea-2b6d-4a6f-93f9-1eb07597b494}, ! Handle
  0.9.3;                                  ! Version Identifier

OS:SizingPeriod:DesignDay,
  {048c2864-08de-4e98-9402-947ab9a9d9ee}, ! Handle
  Aberdeen Regional Arpt Ann Clg 1% Condns WB=>MDB, ! Name
  29.5,                                   ! Maximum Dry-Bulb Temperature {C}
  12.6,                                   ! Daily Dry-Bulb Temperature Range {deltaC}
  23.6,                                   ! Humidity Indicating Conditions at Maximum Dry-Bulb {BasedOnField A3}
  96634,                                  ! Barometric Pressure {Pa}
  6,                                      ! Wind Speed {m/s}
  180,                                    ! Wind Direction {deg}
  0,                                      ! Sky Clearness
  0,                                      ! Rain Indicator
  0,                                      ! Snow Indicator
  21,                                     ! Day of Month
  7,                                      ! Month
  SummerDesignDay,                        ! Day Type
  0,                                      ! Daylight Saving Time Indicator
  Wetbulb,                                ! Humidity Indicating Type
  ,                                       ! Humidity Indicating Day Schedule Name
  DefaultMultipliers,                     ! Dry-Bulb Temperature Range Modifier Type
  ,                                       ! Dry-Bulb Temperature Range Modifier Schedule Name
  ASHRAETau,                              ! Solar Model Indicator
  ,                                       ! Beam Solar Day Schedule Name
  ,                                       ! Diffuse Solar Day Schedule Name
  0.392,                                  ! ASHRAE Taub {dimensionless}
  2.277;                                  ! ASHRAE Taud {dimensionless}

OS:ComponentData,
  {dc01b032-5a1b-43c3-8713-effd524520f0}, ! Handle
  Component Data 1,                       ! Name
  {a47725a2-2d3d-46d2-8eaf-efe9dacc0518}, ! UUID
  {f778831d-da15-4d73-944b-e2d7170ee391}, ! Version UUID
  1366310385,                             ! Creation Timestamp
  1366310385,                             ! Version Timestamp
  {048c2864-08de-4e98-9402-947ab9a9d9ee}; ! Name of Object 1

