
OS:Version,
  {551c7f46-fcd4-43ce-8b46-0c8b58de9cef}, ! Handle
  0.9.3;                                  ! Version Identifier

OS:SizingPeriod:DesignDay,
  {9bb88273-1ab2-4952-b8d3-3aace34943fe}, ! Handle
  Glendive Awos Ann Clg .4% Condns DP=>MDB, ! Name
  24.3,                                   ! Maximum Dry-Bulb Temperature {C}
  14.4,                                   ! Daily Dry-Bulb Temperature Range {deltaC}
  17.9,                                   ! Humidity Indicating Conditions at Maximum Dry-Bulb {BasedOnField A3}
  92645,                                  ! Barometric Pressure {Pa}
  4.9,                                    ! Wind Speed {m/s}
  150,                                    ! Wind Direction {deg}
  0,                                      ! Sky Clearness
  0,                                      ! Rain Indicator
  0,                                      ! Snow Indicator
  21,                                     ! Day of Month
  7,                                      ! Month
  SummerDesignDay,                        ! Day Type
  0,                                      ! Daylight Saving Time Indicator
  Dewpoint,                               ! Humidity Indicating Type
  ,                                       ! Humidity Indicating Day Schedule Name
  DefaultMultipliers,                     ! Dry-Bulb Temperature Range Modifier Type
  ,                                       ! Dry-Bulb Temperature Range Modifier Schedule Name
  ASHRAETau,                              ! Solar Model Indicator
  ,                                       ! Beam Solar Day Schedule Name
  ,                                       ! Diffuse Solar Day Schedule Name
  0.397,                                  ! ASHRAE Taub {dimensionless}
  2.163;                                  ! ASHRAE Taud {dimensionless}

OS:ComponentData,
  {88463475-916c-4e21-86a5-4a18c8527735}, ! Handle
  Component Data 1,                       ! Name
  {4abf4569-be2d-4255-8b9c-8f91f9f6b2ee}, ! UUID
  {e01133be-1db2-4582-a7cf-3e2ce5d0d0b4}, ! Version UUID
  1366308768,                             ! Creation Timestamp
  1366308768,                             ! Version Timestamp
  {9bb88273-1ab2-4952-b8d3-3aace34943fe}; ! Name of Object 1

