
OS:Version,
  {8f67261b-3a99-4ec4-9058-99cf1009fa85}, ! Handle
  0.9.3;                                  ! Version Identifier

OS:SizingPeriod:DesignDay,
  {db703601-f6f4-4c1d-a241-a778d0ae66ed}, ! Handle
  Fairbanks Eielson A Ann Clg 2% Condns DB=>MWB, ! Name
  23.6,                                   ! Maximum Dry-Bulb Temperature {C}
  10.7,                                   ! Daily Dry-Bulb Temperature Range {deltaC}
  14.9,                                   ! Humidity Indicating Conditions at Maximum Dry-Bulb {BasedOnField A3}
  99335,                                  ! Barometric Pressure {Pa}
  2.7,                                    ! Wind Speed {m/s}
  270,                                    ! Wind Direction {deg}
  0,                                      ! Sky Clearness
  0,                                      ! Rain Indicator
  0,                                      ! Snow Indicator
  21,                                     ! Day of Month
  7,                                      ! Month
  SummerDesignDay,                        ! Day Type
  0,                                      ! Daylight Saving Time Indicator
  Wetbulb,                                ! Humidity Indicating Type
  ,                                       ! Humidity Indicating Day Schedule Name
  DefaultMultipliers,                     ! Dry-Bulb Temperature Range Modifier Type
  ,                                       ! Dry-Bulb Temperature Range Modifier Schedule Name
  ASHRAETau,                              ! Solar Model Indicator
  ,                                       ! Beam Solar Day Schedule Name
  ,                                       ! Diffuse Solar Day Schedule Name
  0.386,                                  ! ASHRAE Taub {dimensionless}
  2.208;                                  ! ASHRAE Taud {dimensionless}

OS:ComponentData,
  {19ded719-e879-4aeb-901a-5362c28278ab}, ! Handle
  Component Data 1,                       ! Name
  {cfa6edf1-6d60-4d14-8183-f6247813925b}, ! UUID
  {80fba282-eff4-4f1c-94d7-29b2779ab321}, ! Version UUID
  1366305244,                             ! Creation Timestamp
  1366305244,                             ! Version Timestamp
  {db703601-f6f4-4c1d-a241-a778d0ae66ed}; ! Name of Object 1

