
OS:Version,
  {44efe846-191c-4b6e-9e1f-b21bd36b760e}, ! Handle
  0.9.3;                                  ! Version Identifier

OS:SizingPeriod:DesignDay,
  {2a917a65-1a03-4e2d-b10f-f72d13198e85}, ! Handle
  Fort Dodge  Awos Ann Clg 2% Condns WB=>MDB, ! Name
  28.3,                                   ! Maximum Dry-Bulb Temperature {C}
  10.7,                                   ! Daily Dry-Bulb Temperature Range {deltaC}
  23.5,                                   ! Humidity Indicating Conditions at Maximum Dry-Bulb {BasedOnField A3}
  97132,                                  ! Barometric Pressure {Pa}
  5.4,                                    ! Wind Speed {m/s}
  200,                                    ! Wind Direction {deg}
  0,                                      ! Sky Clearness
  0,                                      ! Rain Indicator
  0,                                      ! Snow Indicator
  21,                                     ! Day of Month
  7,                                      ! Month
  SummerDesignDay,                        ! Day Type
  0,                                      ! Daylight Saving Time Indicator
  Wetbulb,                                ! Humidity Indicating Type
  ,                                       ! Humidity Indicating Day Schedule Name
  DefaultMultipliers,                     ! Dry-Bulb Temperature Range Modifier Type
  ,                                       ! Dry-Bulb Temperature Range Modifier Schedule Name
  ASHRAETau,                              ! Solar Model Indicator
  ,                                       ! Beam Solar Day Schedule Name
  ,                                       ! Diffuse Solar Day Schedule Name
  0.409,                                  ! ASHRAE Taub {dimensionless}
  2.217;                                  ! ASHRAE Taud {dimensionless}

OS:ComponentData,
  {bcd1f37e-a0c6-45e7-8bf4-7d6ddb7d7f72}, ! Handle
  Component Data 1,                       ! Name
  {c21e71c7-992c-4683-bf91-a89a0858c62c}, ! UUID
  {c0e1ca0e-69fa-402c-8d98-c87f58d36bf9}, ! Version UUID
  1366307198,                             ! Creation Timestamp
  1366307198,                             ! Version Timestamp
  {2a917a65-1a03-4e2d-b10f-f72d13198e85}; ! Name of Object 1

