
OS:Version,
  {8b2ae779-7f26-4e3f-ab70-4cae06db9579}, ! Handle
  0.9.3;                                  ! Version Identifier

OS:SizingPeriod:DesignDay,
  {55992550-9800-49bb-9a44-7f02a9c8e9ec}, ! Handle
  Great Falls/Malmstrom Ann Clg .4% Condns DP=>MDB, ! Name
  19.7,                                   ! Maximum Dry-Bulb Temperature {C}
  16,                                     ! Daily Dry-Bulb Temperature Range {deltaC}
  14.4,                                   ! Humidity Indicating Conditions at Maximum Dry-Bulb {BasedOnField A3}
  89060,                                  ! Barometric Pressure {Pa}
  4.9,                                    ! Wind Speed {m/s}
  240,                                    ! Wind Direction {deg}
  0,                                      ! Sky Clearness
  0,                                      ! Rain Indicator
  0,                                      ! Snow Indicator
  21,                                     ! Day of Month
  7,                                      ! Month
  SummerDesignDay,                        ! Day Type
  0,                                      ! Daylight Saving Time Indicator
  Dewpoint,                               ! Humidity Indicating Type
  ,                                       ! Humidity Indicating Day Schedule Name
  DefaultMultipliers,                     ! Dry-Bulb Temperature Range Modifier Type
  ,                                       ! Dry-Bulb Temperature Range Modifier Schedule Name
  ASHRAETau,                              ! Solar Model Indicator
  ,                                       ! Beam Solar Day Schedule Name
  ,                                       ! Diffuse Solar Day Schedule Name
  0.383,                                  ! ASHRAE Taub {dimensionless}
  2.176;                                  ! ASHRAE Taud {dimensionless}

OS:ComponentData,
  {c0216f9a-0a36-417f-86c6-18a1625e1840}, ! Handle
  Component Data 1,                       ! Name
  {3d232f79-6fb9-4d44-a30f-de30cbe248a1}, ! UUID
  {05d508e7-2f49-4ad8-af22-cffbcc2eebc9}, ! Version UUID
  1366308776,                             ! Creation Timestamp
  1366308776,                             ! Version Timestamp
  {55992550-9800-49bb-9a44-7f02a9c8e9ec}; ! Name of Object 1

