
OS:Version,
  {0c589ae3-67b9-46a7-a792-06ebe4387ef5}, ! Handle
  0.9.3;                                  ! Version Identifier

OS:SizingPeriod:DesignDay,
  {67b50d4f-284b-46c1-aeed-b198a1d5e4df}, ! Handle
  Hartford Brainard Fd Ann Clg 1% Condns DP=>MDB, ! Name
  26.7,                                   ! Maximum Dry-Bulb Temperature {C}
  9.9,                                    ! Daily Dry-Bulb Temperature Range {deltaC}
  22.7,                                   ! Humidity Indicating Conditions at Maximum Dry-Bulb {BasedOnField A3}
  101253,                                 ! Barometric Pressure {Pa}
  4.6,                                    ! Wind Speed {m/s}
  260,                                    ! Wind Direction {deg}
  0,                                      ! Sky Clearness
  0,                                      ! Rain Indicator
  0,                                      ! Snow Indicator
  21,                                     ! Day of Month
  7,                                      ! Month
  SummerDesignDay,                        ! Day Type
  0,                                      ! Daylight Saving Time Indicator
  Dewpoint,                               ! Humidity Indicating Type
  ,                                       ! Humidity Indicating Day Schedule Name
  DefaultMultipliers,                     ! Dry-Bulb Temperature Range Modifier Type
  ,                                       ! Dry-Bulb Temperature Range Modifier Schedule Name
  ASHRAETau,                              ! Solar Model Indicator
  ,                                       ! Beam Solar Day Schedule Name
  ,                                       ! Diffuse Solar Day Schedule Name
  0.496,                                  ! ASHRAE Taub {dimensionless}
  1.916;                                  ! ASHRAE Taud {dimensionless}

OS:ComponentData,
  {7279370c-f27e-4c3a-abb8-fd726eb6c512}, ! Handle
  Component Data 1,                       ! Name
  {b9bc1568-dce6-480e-b09a-71d1572c9a7c}, ! UUID
  {f0bf777d-0a5c-435b-b913-05af8e6e9ddd}, ! Version UUID
  1366306760,                             ! Creation Timestamp
  1366306760,                             ! Version Timestamp
  {67b50d4f-284b-46c1-aeed-b198a1d5e4df}; ! Name of Object 1

