
OS:Version,
  {c5d1f47e-0e76-43ed-8a5e-55806761d32b}, ! Handle
  0.9.3;                                  ! Version Identifier

OS:SizingPeriod:DesignDay,
  {1f8b63ad-c447-47d0-b7a8-cd51cc3acc64}, ! Handle
  Los Angeles Ann Clg 2% Condns Enth=>MDB, ! Name
  23.7,                                   ! Maximum Dry-Bulb Temperature {C}
  6,                                      ! Daily Dry-Bulb Temperature Range {deltaC}
  57400,                                  ! Humidity Indicating Conditions at Maximum Dry-Bulb {BasedOnField A3}
  100941,                                 ! Barometric Pressure {Pa}
  4.1,                                    ! Wind Speed {m/s}
  250,                                    ! Wind Direction {deg}
  0,                                      ! Sky Clearness
  0,                                      ! Rain Indicator
  0,                                      ! Snow Indicator
  21,                                     ! Day of Month
  8,                                      ! Month
  SummerDesignDay,                        ! Day Type
  0,                                      ! Daylight Saving Time Indicator
  Enthalpy,                               ! Humidity Indicating Type
  ,                                       ! Humidity Indicating Day Schedule Name
  DefaultMultipliers,                     ! Dry-Bulb Temperature Range Modifier Type
  ,                                       ! Dry-Bulb Temperature Range Modifier Schedule Name
  ASHRAETau,                              ! Solar Model Indicator
  ,                                       ! Beam Solar Day Schedule Name
  ,                                       ! Diffuse Solar Day Schedule Name
  0.44,                                   ! ASHRAE Taub {dimensionless}
  2.108;                                  ! ASHRAE Taud {dimensionless}

OS:ComponentData,
  {e5e74fe6-53ab-414e-b00c-c4fc738de4a3}, ! Handle
  Component Data 1,                       ! Name
  {0934253c-0fbe-4468-9bb1-1ae194cbe06f}, ! UUID
  {d9e92594-753c-4b59-9924-743cf2a23f78}, ! Version UUID
  1366306482,                             ! Creation Timestamp
  1366306482,                             ! Version Timestamp
  {1f8b63ad-c447-47d0-b7a8-cd51cc3acc64}; ! Name of Object 1

