
OS:Version,
  {263cd20c-755d-47fa-bb5d-2451d65913f3}, ! Handle
  0.9.3;                                  ! Version Identifier

OS:SizingPeriod:DesignDay,
  {7272abb8-c1f9-4134-834a-7c016819fcb9}, ! Handle
  Hickory Regional Ap Ann Htg 99.6% Condns DB, ! Name
  -7.3,                                   ! Maximum Dry-Bulb Temperature {C}
  0,                                      ! Daily Dry-Bulb Temperature Range {deltaC}
  -7.3,                                   ! Humidity Indicating Conditions at Maximum Dry-Bulb {BasedOnField A3}
  97214,                                  ! Barometric Pressure {Pa}
  2,                                      ! Wind Speed {m/s}
  300,                                    ! Wind Direction {deg}
  0,                                      ! Sky Clearness
  0,                                      ! Rain Indicator
  0,                                      ! Snow Indicator
  21,                                     ! Day of Month
  1,                                      ! Month
  WinterDesignDay,                        ! Day Type
  0,                                      ! Daylight Saving Time Indicator
  Wetbulb,                                ! Humidity Indicating Type
  ,                                       ! Humidity Indicating Day Schedule Name
  DefaultMultipliers,                     ! Dry-Bulb Temperature Range Modifier Type
  ,                                       ! Dry-Bulb Temperature Range Modifier Schedule Name
  ASHRAEClearSky;                         ! Solar Model Indicator

OS:ComponentData,
  {1719629b-73f1-4beb-a45f-c55f5f57944b}, ! Handle
  Component Data 1,                       ! Name
  {d1be8ac3-ae38-4a75-a1ae-161c71a9f952}, ! UUID
  {c07867d3-9b6f-43fd-a0c6-2c3b51aafe24}, ! Version UUID
  1366308939,                             ! Creation Timestamp
  1366308939,                             ! Version Timestamp
  {7272abb8-c1f9-4134-834a-7c016819fcb9}; ! Name of Object 1

