
OS:Version,
  {784fd93d-892a-4772-b205-8d60e300b660}, ! Handle
  0.9.3;                                  ! Version Identifier

OS:SizingPeriod:DesignDay,
  {61db40a6-fff6-408d-8970-e7684a60af27}, ! Handle
  Hilo Ann Clg .4% Condns DP=>MDB,        ! Name
  26.2,                                   ! Maximum Dry-Bulb Temperature {C}
  7,                                      ! Daily Dry-Bulb Temperature Range {deltaC}
  23.9,                                   ! Humidity Indicating Conditions at Maximum Dry-Bulb {BasedOnField A3}
  101193,                                 ! Barometric Pressure {Pa}
  4.8,                                    ! Wind Speed {m/s}
  90,                                     ! Wind Direction {deg}
  0,                                      ! Sky Clearness
  0,                                      ! Rain Indicator
  0,                                      ! Snow Indicator
  21,                                     ! Day of Month
  8,                                      ! Month
  SummerDesignDay,                        ! Day Type
  0,                                      ! Daylight Saving Time Indicator
  Dewpoint,                               ! Humidity Indicating Type
  ,                                       ! Humidity Indicating Day Schedule Name
  DefaultMultipliers,                     ! Dry-Bulb Temperature Range Modifier Type
  ,                                       ! Dry-Bulb Temperature Range Modifier Schedule Name
  ASHRAETau,                              ! Solar Model Indicator
  ,                                       ! Beam Solar Day Schedule Name
  ,                                       ! Diffuse Solar Day Schedule Name
  0.411,                                  ! ASHRAE Taub {dimensionless}
  2.427;                                  ! ASHRAE Taud {dimensionless}

OS:ComponentData,
  {b56f75da-8003-4557-b7ce-9abda39b5a87}, ! Handle
  Component Data 1,                       ! Name
  {7c9eb7fc-9486-40fb-bbfc-c592a77001ee}, ! UUID
  {cfc39939-6ac8-427c-9a7d-2a55a9dea825}, ! Version UUID
  1366307081,                             ! Creation Timestamp
  1366307081,                             ! Version Timestamp
  {61db40a6-fff6-408d-8970-e7684a60af27}; ! Name of Object 1

