
OS:Version,
  {f612e56e-1b8a-47d5-bd61-99ed7c485dde}, ! Handle
  0.9.3;                                  ! Version Identifier

OS:SizingPeriod:DesignDay,
  {a778ec06-b607-4fe6-b396-4e2ac15477fe}, ! Handle
  Gainesville Regional Ap Ann Htg 99% Condns DB, ! Name
  0.8,                                    ! Maximum Dry-Bulb Temperature {C}
  0,                                      ! Daily Dry-Bulb Temperature Range {deltaC}
  0.8,                                    ! Humidity Indicating Conditions at Maximum Dry-Bulb {BasedOnField A3}
  100833,                                 ! Barometric Pressure {Pa}
  1.7,                                    ! Wind Speed {m/s}
  310,                                    ! Wind Direction {deg}
  0,                                      ! Sky Clearness
  0,                                      ! Rain Indicator
  0,                                      ! Snow Indicator
  21,                                     ! Day of Month
  1,                                      ! Month
  WinterDesignDay,                        ! Day Type
  0,                                      ! Daylight Saving Time Indicator
  Wetbulb,                                ! Humidity Indicating Type
  ,                                       ! Humidity Indicating Day Schedule Name
  DefaultMultipliers,                     ! Dry-Bulb Temperature Range Modifier Type
  ,                                       ! Dry-Bulb Temperature Range Modifier Schedule Name
  ASHRAEClearSky;                         ! Solar Model Indicator

OS:ComponentData,
  {e0c332bc-f37b-4f0a-abdf-5fff4eadaf2b}, ! Handle
  Component Data 1,                       ! Name
  {50bea1c7-3185-4621-ae59-cce4537c60e4}, ! UUID
  {9ed4e929-57a2-4d81-8374-d1a100269bfb}, ! Version UUID
  1366306808,                             ! Creation Timestamp
  1366306808,                             ! Version Timestamp
  {a778ec06-b607-4fe6-b396-4e2ac15477fe}; ! Name of Object 1

