
OS:Version,
  {aa93b111-51b3-4562-8e16-c39205a349d1}, ! Handle
  0.9.3;                                  ! Version Identifier

OS:SizingPeriod:DesignDay,
  {580bfb2e-d2c5-4350-97bc-7bbb750662c9}, ! Handle
  CAPE_HATTERAS Ann Clg 1% Condns WB=>MDB, ! Name
  28.2,                                   ! Maximum Dry-Bulb Temperature {C}
  4.4,                                    ! Daily Dry-Bulb Temperature Range {deltaC}
  26.4,                                   ! Humidity Indicating Conditions at Maximum Dry-Bulb {BasedOnField A3}
  101301,                                 ! Barometric Pressure {Pa}
  4.4,                                    ! Wind Speed {m/s}
  0,                                      ! Wind Direction {deg}
  0,                                      ! Sky Clearness
  0,                                      ! Rain Indicator
  0,                                      ! Snow Indicator
  21,                                     ! Day of Month
  7,                                      ! Month
  SummerDesignDay,                        ! Day Type
  0,                                      ! Daylight Saving Time Indicator
  Wetbulb,                                ! Humidity Indicating Type
  ,                                       ! Humidity Indicating Day Schedule Name
  DefaultMultipliers,                     ! Dry-Bulb Temperature Range Modifier Type
  ,                                       ! Dry-Bulb Temperature Range Modifier Schedule Name
  ASHRAETau,                              ! Solar Model Indicator
  ,                                       ! Beam Solar Day Schedule Name
  ,                                       ! Diffuse Solar Day Schedule Name
  0.57,                                   ! ASHRAE Taub {dimensionless}
  1.801;                                  ! ASHRAE Taud {dimensionless}

OS:ComponentData,
  {8cdaa3a5-c973-45df-b19d-1f915a46b1f3}, ! Handle
  Component Data 1,                       ! Name
  {43a4bfc9-02ba-48b8-add5-f3bd877397d7}, ! UUID
  {6a4c06a7-ad49-4189-b965-c354b8dc4e9f}, ! Version UUID
  1366308877,                             ! Creation Timestamp
  1366308877,                             ! Version Timestamp
  {580bfb2e-d2c5-4350-97bc-7bbb750662c9}; ! Name of Object 1

