
OS:Version,
  {dc9bf371-7774-4180-a8ee-44adc25850aa}, ! Handle
  0.9.3;                                  ! Version Identifier

OS:SizingPeriod:DesignDay,
  {4569b804-2be7-4337-afaf-b800f6d3df79}, ! Handle
  Kake Seaplane Base Ann Clg 1% Condns DB=>MWB, ! Name
  18.8,                                   ! Maximum Dry-Bulb Temperature {C}
  6.3,                                    ! Daily Dry-Bulb Temperature Range {deltaC}
  13.3,                                   ! Humidity Indicating Conditions at Maximum Dry-Bulb {BasedOnField A3}
  101325,                                 ! Barometric Pressure {Pa}
  2.6,                                    ! Wind Speed {m/s}
  280,                                    ! Wind Direction {deg}
  0,                                      ! Sky Clearness
  0,                                      ! Rain Indicator
  0,                                      ! Snow Indicator
  21,                                     ! Day of Month
  7,                                      ! Month
  SummerDesignDay,                        ! Day Type
  0,                                      ! Daylight Saving Time Indicator
  Wetbulb,                                ! Humidity Indicating Type
  ,                                       ! Humidity Indicating Day Schedule Name
  DefaultMultipliers,                     ! Dry-Bulb Temperature Range Modifier Type
  ,                                       ! Dry-Bulb Temperature Range Modifier Schedule Name
  ASHRAETau,                              ! Solar Model Indicator
  ,                                       ! Beam Solar Day Schedule Name
  ,                                       ! Diffuse Solar Day Schedule Name
  0.386,                                  ! ASHRAE Taub {dimensionless}
  2.213;                                  ! ASHRAE Taud {dimensionless}

OS:ComponentData,
  {38311106-b069-4fe9-b45f-3f3ca182a738}, ! Handle
  Component Data 1,                       ! Name
  {96fa978d-04f4-4c56-9aba-44c84c146241}, ! UUID
  {e5692560-a84b-4e76-813c-99525449d214}, ! Version UUID
  1366305342,                             ! Creation Timestamp
  1366305342,                             ! Version Timestamp
  {4569b804-2be7-4337-afaf-b800f6d3df79}; ! Name of Object 1

