
OS:Version,
  {0f29d889-62c4-4496-993d-d292405b50d0}, ! Handle
  0.9.3;                                  ! Version Identifier

OS:SizingPeriod:DesignDay,
  {0ff35d3f-307d-489f-9013-febc2c16bbdc}, ! Handle
  Jamestown  Awos Ann Clg .4% Condns DP=>MDB, ! Name
  25.4,                                   ! Maximum Dry-Bulb Temperature {C}
  9.1,                                    ! Daily Dry-Bulb Temperature Range {deltaC}
  21.2,                                   ! Humidity Indicating Conditions at Maximum Dry-Bulb {BasedOnField A3}
  95175,                                  ! Barometric Pressure {Pa}
  4.2,                                    ! Wind Speed {m/s}
  240,                                    ! Wind Direction {deg}
  0,                                      ! Sky Clearness
  0,                                      ! Rain Indicator
  0,                                      ! Snow Indicator
  21,                                     ! Day of Month
  7,                                      ! Month
  SummerDesignDay,                        ! Day Type
  0,                                      ! Daylight Saving Time Indicator
  Dewpoint,                               ! Humidity Indicating Type
  ,                                       ! Humidity Indicating Day Schedule Name
  DefaultMultipliers,                     ! Dry-Bulb Temperature Range Modifier Type
  ,                                       ! Dry-Bulb Temperature Range Modifier Schedule Name
  ASHRAETau,                              ! Solar Model Indicator
  ,                                       ! Beam Solar Day Schedule Name
  ,                                       ! Diffuse Solar Day Schedule Name
  0.425,                                  ! ASHRAE Taub {dimensionless}
  2.121;                                  ! ASHRAE Taud {dimensionless}

OS:ComponentData,
  {af5e5049-5a33-47aa-ba83-d6e8a524679c}, ! Handle
  Component Data 1,                       ! Name
  {2aa5c21a-9c38-4bd7-b260-b635b4f80eab}, ! UUID
  {f4a77018-92b2-42f2-9f0c-2bec247effc8}, ! Version UUID
  1366309641,                             ! Creation Timestamp
  1366309641,                             ! Version Timestamp
  {0ff35d3f-307d-489f-9013-febc2c16bbdc}; ! Name of Object 1

