
OS:Version,
  {81abbbd9-257b-400b-9173-55d64b40ea9b}, ! Handle
  0.9.3;                                  ! Version Identifier

OS:SizingPeriod:DesignDay,
  {7b839d2e-95b7-4ba1-87da-2c41e536dbdc}, ! Handle
  Litchfield Muni Ann Clg .4% Condns Enth=>MDB, ! Name
  29.1,                                   ! Maximum Dry-Bulb Temperature {C}
  9.8,                                    ! Daily Dry-Bulb Temperature Range {deltaC}
  77100,                                  ! Humidity Indicating Conditions at Maximum Dry-Bulb {BasedOnField A3}
  97225,                                  ! Barometric Pressure {Pa}
  3.7,                                    ! Wind Speed {m/s}
  180,                                    ! Wind Direction {deg}
  0,                                      ! Sky Clearness
  0,                                      ! Rain Indicator
  0,                                      ! Snow Indicator
  21,                                     ! Day of Month
  7,                                      ! Month
  SummerDesignDay,                        ! Day Type
  0,                                      ! Daylight Saving Time Indicator
  Enthalpy,                               ! Humidity Indicating Type
  ,                                       ! Humidity Indicating Day Schedule Name
  DefaultMultipliers,                     ! Dry-Bulb Temperature Range Modifier Type
  ,                                       ! Dry-Bulb Temperature Range Modifier Schedule Name
  ASHRAETau,                              ! Solar Model Indicator
  ,                                       ! Beam Solar Day Schedule Name
  ,                                       ! Diffuse Solar Day Schedule Name
  0.4,                                    ! ASHRAE Taub {dimensionless}
  2.246;                                  ! ASHRAE Taud {dimensionless}

OS:ComponentData,
  {e58a4383-1ad7-4b5e-a94e-c0b4b71dae18}, ! Handle
  Component Data 1,                       ! Name
  {8bc3c08f-e5a2-41c7-8245-47bc87b1f8aa}, ! UUID
  {529f0d91-a99d-4cce-a58e-24acee09219c}, ! Version UUID
  1366308283,                             ! Creation Timestamp
  1366308283,                             ! Version Timestamp
  {7b839d2e-95b7-4ba1-87da-2c41e536dbdc}; ! Name of Object 1

