
OS:Version,
  {203a44c7-e393-4b38-91ce-ab4e50c0a1cb}, ! Handle
  0.9.3;                                  ! Version Identifier

OS:SizingPeriod:DesignDay,
  {22333a11-ce12-4598-bde4-c1c4a38d9d2d}, ! Handle
  Brownsville Ann Clg 2% Condns DB=>MWB,  ! Name
  34,                                     ! Maximum Dry-Bulb Temperature {C}
  9.5,                                    ! Daily Dry-Bulb Temperature Range {deltaC}
  25.4,                                   ! Humidity Indicating Conditions at Maximum Dry-Bulb {BasedOnField A3}
  101253,                                 ! Barometric Pressure {Pa}
  6.9,                                    ! Wind Speed {m/s}
  160,                                    ! Wind Direction {deg}
  0,                                      ! Sky Clearness
  0,                                      ! Rain Indicator
  0,                                      ! Snow Indicator
  21,                                     ! Day of Month
  8,                                      ! Month
  SummerDesignDay,                        ! Day Type
  0,                                      ! Daylight Saving Time Indicator
  Wetbulb,                                ! Humidity Indicating Type
  ,                                       ! Humidity Indicating Day Schedule Name
  DefaultMultipliers,                     ! Dry-Bulb Temperature Range Modifier Type
  ,                                       ! Dry-Bulb Temperature Range Modifier Schedule Name
  ASHRAETau,                              ! Solar Model Indicator
  ,                                       ! Beam Solar Day Schedule Name
  ,                                       ! Diffuse Solar Day Schedule Name
  0.465,                                  ! ASHRAE Taub {dimensionless}
  2.114;                                  ! ASHRAE Taud {dimensionless}

OS:ComponentData,
  {d3104f3e-6a27-49df-af82-0fc6d4eab45c}, ! Handle
  Component Data 1,                       ! Name
  {9d47e826-f414-4a94-903a-a42180010d09}, ! UUID
  {cd0884fc-0016-45d2-91d9-6198c55ee61c}, ! Version UUID
  1366310602,                             ! Creation Timestamp
  1366310602,                             ! Version Timestamp
  {22333a11-ce12-4598-bde4-c1c4a38d9d2d}; ! Name of Object 1

