
OS:Version,
  {4f65aed4-8736-4a95-bc87-d3303183229e}, ! Handle
  0.9.3;                                  ! Version Identifier

OS:SizingPeriod:DesignDay,
  {62287f99-8a81-420a-963c-e2b1e5f17754}, ! Handle
  ANNETTE Ann Clg .4% Condns DB=>MWB,     ! Name
  22.7,                                   ! Maximum Dry-Bulb Temperature {C}
  5.2,                                    ! Daily Dry-Bulb Temperature Range {deltaC}
  16,                                     ! Humidity Indicating Conditions at Maximum Dry-Bulb {BasedOnField A3}
  100917,                                 ! Barometric Pressure {Pa}
  3.4,                                    ! Wind Speed {m/s}
  300,                                    ! Wind Direction {deg}
  0,                                      ! Sky Clearness
  0,                                      ! Rain Indicator
  0,                                      ! Snow Indicator
  21,                                     ! Day of Month
  8,                                      ! Month
  SummerDesignDay,                        ! Day Type
  0,                                      ! Daylight Saving Time Indicator
  Wetbulb,                                ! Humidity Indicating Type
  ,                                       ! Humidity Indicating Day Schedule Name
  DefaultMultipliers,                     ! Dry-Bulb Temperature Range Modifier Type
  ,                                       ! Dry-Bulb Temperature Range Modifier Schedule Name
  ASHRAETau,                              ! Solar Model Indicator
  ,                                       ! Beam Solar Day Schedule Name
  ,                                       ! Diffuse Solar Day Schedule Name
  0.369,                                  ! ASHRAE Taub {dimensionless}
  2.372;                                  ! ASHRAE Taud {dimensionless}

