
OS:Version,
  {bbbf405e-661f-4ba4-b84a-f72902175904}, ! Handle
  0.9.3;                                  ! Version Identifier

OS:SizingPeriod:DesignDay,
  {80dea397-ebb3-4f31-b765-3b477c55af25}, ! Handle
  CAPE_HATTERAS Ann Clg .4% Condns DB=>MWB, ! Name
  30.2,                                   ! Maximum Dry-Bulb Temperature {C}
  4.4,                                    ! Daily Dry-Bulb Temperature Range {deltaC}
  25.6,                                   ! Humidity Indicating Conditions at Maximum Dry-Bulb {BasedOnField A3}
  101301,                                 ! Barometric Pressure {Pa}
  4.4,                                    ! Wind Speed {m/s}
  0,                                      ! Wind Direction {deg}
  0,                                      ! Sky Clearness
  0,                                      ! Rain Indicator
  0,                                      ! Snow Indicator
  21,                                     ! Day of Month
  7,                                      ! Month
  SummerDesignDay,                        ! Day Type
  0,                                      ! Daylight Saving Time Indicator
  Wetbulb,                                ! Humidity Indicating Type
  ,                                       ! Humidity Indicating Day Schedule Name
  DefaultMultipliers,                     ! Dry-Bulb Temperature Range Modifier Type
  ,                                       ! Dry-Bulb Temperature Range Modifier Schedule Name
  ASHRAETau,                              ! Solar Model Indicator
  ,                                       ! Beam Solar Day Schedule Name
  ,                                       ! Diffuse Solar Day Schedule Name
  0.57,                                   ! ASHRAE Taub {dimensionless}
  1.801;                                  ! ASHRAE Taud {dimensionless}

OS:ComponentData,
  {a5074c05-2d47-475a-9b3f-7ab4c29681be}, ! Handle
  Component Data 1,                       ! Name
  {bd6537e0-c2e5-4147-9eea-56d43e0ae4dc}, ! UUID
  {4d6df711-c33d-4a99-bb3a-4b42649cb808}, ! Version UUID
  1366308876,                             ! Creation Timestamp
  1366308876,                             ! Version Timestamp
  {80dea397-ebb3-4f31-b765-3b477c55af25}; ! Name of Object 1

