
OS:Version,
  {9f9cf58f-959a-41e7-bc62-edb84c4ef1b5}, ! Handle
  0.9.3;                                  ! Version Identifier

OS:SizingPeriod:DesignDay,
  {7cf05f37-fa53-4231-87f7-fe86d3ec5734}, ! Handle
  Bar Harbor  Awos Ann Clg .4% Condns WB=>MDB, ! Name
  25.6,                                   ! Maximum Dry-Bulb Temperature {C}
  9.6,                                    ! Daily Dry-Bulb Temperature Range {deltaC}
  21.2,                                   ! Humidity Indicating Conditions at Maximum Dry-Bulb {BasedOnField A3}
  101013,                                 ! Barometric Pressure {Pa}
  4,                                      ! Wind Speed {m/s}
  220,                                    ! Wind Direction {deg}
  0,                                      ! Sky Clearness
  0,                                      ! Rain Indicator
  0,                                      ! Snow Indicator
  21,                                     ! Day of Month
  7,                                      ! Month
  SummerDesignDay,                        ! Day Type
  0,                                      ! Daylight Saving Time Indicator
  Wetbulb,                                ! Humidity Indicating Type
  ,                                       ! Humidity Indicating Day Schedule Name
  DefaultMultipliers,                     ! Dry-Bulb Temperature Range Modifier Type
  ,                                       ! Dry-Bulb Temperature Range Modifier Schedule Name
  ASHRAETau,                              ! Solar Model Indicator
  ,                                       ! Beam Solar Day Schedule Name
  ,                                       ! Diffuse Solar Day Schedule Name
  0.469,                                  ! ASHRAE Taub {dimensionless}
  1.996;                                  ! ASHRAE Taud {dimensionless}

OS:ComponentData,
  {2e9b8da5-efe3-460f-8b59-716f636ab3d7}, ! Handle
  Component Data 1,                       ! Name
  {ed0c9567-60ee-4db7-bde4-738ef20d5554}, ! UUID
  {aa798a9f-5cfa-4c61-a356-7379d627e778}, ! Version UUID
  1366307879,                             ! Creation Timestamp
  1366307879,                             ! Version Timestamp
  {7cf05f37-fa53-4231-87f7-fe86d3ec5734}; ! Name of Object 1

