
OS:Version,
  {f6a52ba6-9a0b-47f9-8f90-43f632a668dd}, ! Handle
  0.9.3;                                  ! Version Identifier

OS:SizingPeriod:DesignDay,
  {578c1c44-8e52-4cac-adf9-2a372a5e9bc4}, ! Handle
  Abington Ann Htg Wind 99% Condns WS=>MCDB, ! Name
  4.6,                                    ! Maximum Dry-Bulb Temperature {C}
  0,                                      ! Daily Dry-Bulb Temperature Range {deltaC}
  4.6,                                    ! Humidity Indicating Conditions at Maximum Dry-Bulb {BasedOnField A3}
  93971,                                  ! Barometric Pressure {Pa}
  8.4,                                    ! Wind Speed {m/s}
  250,                                    ! Wind Direction {deg}
  0,                                      ! Sky Clearness
  0,                                      ! Rain Indicator
  0,                                      ! Snow Indicator
  21,                                     ! Day of Month
  1,                                      ! Month
  WinterDesignDay,                        ! Day Type
  0,                                      ! Daylight Saving Time Indicator
  Wetbulb,                                ! Humidity Indicating Type
  ,                                       ! Humidity Indicating Day Schedule Name
  DefaultMultipliers,                     ! Dry-Bulb Temperature Range Modifier Type
  ,                                       ! Dry-Bulb Temperature Range Modifier Schedule Name
  ASHRAEClearSky;                         ! Solar Model Indicator

OS:ComponentData,
  {87f79277-9187-4740-bd5c-b9de98f7a7c0}, ! Handle
  Component Data 1,                       ! Name
  {c9681c64-6463-4acd-9979-1c543ea88b24}, ! UUID
  {15b0d943-3343-4d4c-903f-3220ef22140d}, ! Version UUID
  1366311013,                             ! Creation Timestamp
  1366311013,                             ! Version Timestamp
  {578c1c44-8e52-4cac-adf9-2a372a5e9bc4}; ! Name of Object 1

