
OS:Version,
  {8fdcd74d-857c-4a8c-8b2a-53c369629054}, ! Handle
  0.9.3;                                  ! Version Identifier

OS:SizingPeriod:DesignDay,
  {46f5b82d-c352-43f7-b020-cf16f942cc25}, ! Handle
  Anderson County Ap Ann Clg .4% Condns DP=>MDB, ! Name
  27.3,                                   ! Maximum Dry-Bulb Temperature {C}
  10.9,                                   ! Daily Dry-Bulb Temperature Range {deltaC}
  23.7,                                   ! Humidity Indicating Conditions at Maximum Dry-Bulb {BasedOnField A3}
  98569,                                  ! Barometric Pressure {Pa}
  3.8,                                    ! Wind Speed {m/s}
  250,                                    ! Wind Direction {deg}
  0,                                      ! Sky Clearness
  0,                                      ! Rain Indicator
  0,                                      ! Snow Indicator
  21,                                     ! Day of Month
  7,                                      ! Month
  SummerDesignDay,                        ! Day Type
  0,                                      ! Daylight Saving Time Indicator
  Dewpoint,                               ! Humidity Indicating Type
  ,                                       ! Humidity Indicating Day Schedule Name
  DefaultMultipliers,                     ! Dry-Bulb Temperature Range Modifier Type
  ,                                       ! Dry-Bulb Temperature Range Modifier Schedule Name
  ASHRAETau,                              ! Solar Model Indicator
  ,                                       ! Beam Solar Day Schedule Name
  ,                                       ! Diffuse Solar Day Schedule Name
  0.545,                                  ! ASHRAE Taub {dimensionless}
  1.797;                                  ! ASHRAE Taud {dimensionless}

OS:ComponentData,
  {c23a44a8-082d-429e-a45d-ae24f28fd5f7}, ! Handle
  Component Data 1,                       ! Name
  {f2174890-6576-44db-9b26-e406dfea74a1}, ! UUID
  {eed217e7-4302-42ad-87e3-e8fc938cf947}, ! Version UUID
  1366310313,                             ! Creation Timestamp
  1366310313,                             ! Version Timestamp
  {46f5b82d-c352-43f7-b020-cf16f942cc25}; ! Name of Object 1

