
OS:Version,
  {db55bfae-2c49-40e4-9ea2-9e4eb2cd1d96}, ! Handle
  0.9.3;                                  ! Version Identifier

OS:SizingPeriod:DesignDay,
  {b0740c34-3ef1-4e16-b1da-a5c7b201d828}, ! Handle
  CHICAGO Ann Clg 1% Condns DB=>MWB,      ! Name
  31.6,                                   ! Maximum Dry-Bulb Temperature {C}
  10.5,                                   ! Daily Dry-Bulb Temperature Range {deltaC}
  23,                                     ! Humidity Indicating Conditions at Maximum Dry-Bulb {BasedOnField A3}
  99063,                                  ! Barometric Pressure {Pa}
  5.2,                                    ! Wind Speed {m/s}
  230,                                    ! Wind Direction {deg}
  0,                                      ! Sky Clearness
  0,                                      ! Rain Indicator
  0,                                      ! Snow Indicator
  21,                                     ! Day of Month
  7,                                      ! Month
  SummerDesignDay,                        ! Day Type
  0,                                      ! Daylight Saving Time Indicator
  Wetbulb,                                ! Humidity Indicating Type
  ,                                       ! Humidity Indicating Day Schedule Name
  DefaultMultipliers,                     ! Dry-Bulb Temperature Range Modifier Type
  ,                                       ! Dry-Bulb Temperature Range Modifier Schedule Name
  ASHRAETau,                              ! Solar Model Indicator
  ,                                       ! Beam Solar Day Schedule Name
  ,                                       ! Diffuse Solar Day Schedule Name
  0.455,                                  ! ASHRAE Taub {dimensionless}
  2.05;                                   ! ASHRAE Taud {dimensionless}

OS:ComponentData,
  {36bd23ea-e15d-4c18-976e-30b00aeac91d}, ! Handle
  Component Data 1,                       ! Name
  {ccf9e849-dfbd-4ae2-aa74-d3fc5638dc65}, ! UUID
  {4d8aaf5a-a7ad-4b96-9a09-a206243a644b}, ! Version UUID
  1366307346,                             ! Creation Timestamp
  1366307346,                             ! Version Timestamp
  {b0740c34-3ef1-4e16-b1da-a5c7b201d828}; ! Name of Object 1

