
OS:Version,
  {9a529a8c-78eb-4816-a00b-1b9cf0a6782d}, ! Handle
  0.9.3;                                  ! Version Identifier

OS:SizingPeriod:DesignDay,
  {dcc0c858-9f65-4778-b501-b6e1fde0c19a}, ! Handle
  Chan Gurney Muni Ann Htg 99% Condns DB, ! Name
  -19.6,                                  ! Maximum Dry-Bulb Temperature {C}
  0,                                      ! Daily Dry-Bulb Temperature Range {deltaC}
  -19.6,                                  ! Humidity Indicating Conditions at Maximum Dry-Bulb {BasedOnField A3}
  96519,                                  ! Barometric Pressure {Pa}
  4.5,                                    ! Wind Speed {m/s}
  310,                                    ! Wind Direction {deg}
  0,                                      ! Sky Clearness
  0,                                      ! Rain Indicator
  0,                                      ! Snow Indicator
  21,                                     ! Day of Month
  1,                                      ! Month
  WinterDesignDay,                        ! Day Type
  0,                                      ! Daylight Saving Time Indicator
  Wetbulb,                                ! Humidity Indicating Type
  ,                                       ! Humidity Indicating Day Schedule Name
  DefaultMultipliers,                     ! Dry-Bulb Temperature Range Modifier Type
  ,                                       ! Dry-Bulb Temperature Range Modifier Schedule Name
  ASHRAEClearSky;                         ! Solar Model Indicator

OS:ComponentData,
  {7760c5e8-0447-4356-81b1-66fcd80f9484}, ! Handle
  Component Data 1,                       ! Name
  {65cd9342-ecfa-4c34-8985-cc2ccea8e7bc}, ! UUID
  {7133aea9-75eb-42d4-a598-35238344fb3d}, ! Version UUID
  1366310471,                             ! Creation Timestamp
  1366310471,                             ! Version Timestamp
  {dcc0c858-9f65-4778-b501-b6e1fde0c19a}; ! Name of Object 1

