
OS:Version,
  {95bf2c11-2a1c-4a48-8bb2-d959dc4264f2}, ! Handle
  0.9.3;                                  ! Version Identifier

OS:SizingPeriod:DesignDay,
  {8740ea5c-68e0-4516-847a-8c7c24e2a4e3}, ! Handle
  Hill City Municipal Ap Ann Htg 99.6% Condns DB, ! Name
  -17,                                    ! Maximum Dry-Bulb Temperature {C}
  0,                                      ! Daily Dry-Bulb Temperature Range {deltaC}
  -17,                                    ! Humidity Indicating Conditions at Maximum Dry-Bulb {BasedOnField A3}
  93565,                                  ! Barometric Pressure {Pa}
  3.7,                                    ! Wind Speed {m/s}
  0,                                      ! Wind Direction {deg}
  0,                                      ! Sky Clearness
  0,                                      ! Rain Indicator
  0,                                      ! Snow Indicator
  21,                                     ! Day of Month
  1,                                      ! Month
  WinterDesignDay,                        ! Day Type
  0,                                      ! Daylight Saving Time Indicator
  Wetbulb,                                ! Humidity Indicating Type
  ,                                       ! Humidity Indicating Day Schedule Name
  DefaultMultipliers,                     ! Dry-Bulb Temperature Range Modifier Type
  ,                                       ! Dry-Bulb Temperature Range Modifier Schedule Name
  ASHRAEClearSky;                         ! Solar Model Indicator

OS:ComponentData,
  {9ef8a2ee-6e09-4409-a27c-ef1f5f666064}, ! Handle
  Component Data 1,                       ! Name
  {c517702f-07ac-4a73-9a2c-9d925e0c2515}, ! UUID
  {134f85e6-d0a3-4d40-a218-b206545f6f93}, ! Version UUID
  1366307548,                             ! Creation Timestamp
  1366307548,                             ! Version Timestamp
  {8740ea5c-68e0-4516-847a-8c7c24e2a4e3}; ! Name of Object 1

