
OS:Version,
  {233f2cbf-e429-4732-bf66-7e4a3112706d}, ! Handle
  0.9.3;                                  ! Version Identifier

OS:SizingPeriod:DesignDay,
  {aefbd2b9-3bf4-45d8-b03f-7a1302d60c9b}, ! Handle
  GULKANA Ann Clg 2% Condns DP=>MDB,      ! Name
  15.1,                                   ! Maximum Dry-Bulb Temperature {C}
  11.7,                                   ! Daily Dry-Bulb Temperature Range {deltaC}
  9.5,                                    ! Humidity Indicating Conditions at Maximum Dry-Bulb {BasedOnField A3}
  95679,                                  ! Barometric Pressure {Pa}
  2.6,                                    ! Wind Speed {m/s}
  160,                                    ! Wind Direction {deg}
  0,                                      ! Sky Clearness
  0,                                      ! Rain Indicator
  0,                                      ! Snow Indicator
  21,                                     ! Day of Month
  7,                                      ! Month
  SummerDesignDay,                        ! Day Type
  0,                                      ! Daylight Saving Time Indicator
  Dewpoint,                               ! Humidity Indicating Type
  ,                                       ! Humidity Indicating Day Schedule Name
  DefaultMultipliers,                     ! Dry-Bulb Temperature Range Modifier Type
  ,                                       ! Dry-Bulb Temperature Range Modifier Schedule Name
  ASHRAETau,                              ! Solar Model Indicator
  ,                                       ! Beam Solar Day Schedule Name
  ,                                       ! Diffuse Solar Day Schedule Name
  0.385,                                  ! ASHRAE Taub {dimensionless}
  2.111;                                  ! ASHRAE Taud {dimensionless}

OS:ComponentData,
  {c87a9401-9d57-48e2-bcb1-4370ffbdc687}, ! Handle
  Component Data 1,                       ! Name
  {5b839f67-2c5b-42bf-b3a0-117b916b56ec}, ! UUID
  {8079dbfd-b779-4da4-8a07-02b572ba4f6f}, ! Version UUID
  1366305289,                             ! Creation Timestamp
  1366305289,                             ! Version Timestamp
  {aefbd2b9-3bf4-45d8-b03f-7a1302d60c9b}; ! Name of Object 1

