
OS:Version,
  {9a27bfaf-cb35-494b-8d4b-6f220473f50e}, ! Handle
  0.9.3;                                  ! Version Identifier

OS:SizingPeriod:DesignDay,
  {476a6683-386c-42d1-839e-762896acbbac}, ! Handle
  DETROIT Ann Htg 99% Condns DB,          ! Name
  -14.1,                                  ! Maximum Dry-Bulb Temperature {C}
  0,                                      ! Daily Dry-Bulb Temperature Range {deltaC}
  -14.1,                                  ! Humidity Indicating Conditions at Maximum Dry-Bulb {BasedOnField A3}
  99051,                                  ! Barometric Pressure {Pa}
  4.9,                                    ! Wind Speed {m/s}
  240,                                    ! Wind Direction {deg}
  0,                                      ! Sky Clearness
  0,                                      ! Rain Indicator
  0,                                      ! Snow Indicator
  21,                                     ! Day of Month
  1,                                      ! Month
  WinterDesignDay,                        ! Day Type
  0,                                      ! Daylight Saving Time Indicator
  Wetbulb,                                ! Humidity Indicating Type
  ,                                       ! Humidity Indicating Day Schedule Name
  DefaultMultipliers,                     ! Dry-Bulb Temperature Range Modifier Type
  ,                                       ! Dry-Bulb Temperature Range Modifier Schedule Name
  ASHRAEClearSky;                         ! Solar Model Indicator

OS:ComponentData,
  {3168aa68-f9f9-4d89-bffc-a7366a16ba21}, ! Handle
  Component Data 1,                       ! Name
  {a4b20719-99fa-44b4-bf36-4be4024051d8}, ! UUID
  {aaacc2ba-aa20-4e14-b351-7508eee4b933}, ! Version UUID
  1366307979,                             ! Creation Timestamp
  1366307979,                             ! Version Timestamp
  {476a6683-386c-42d1-839e-762896acbbac}; ! Name of Object 1

