
OS:Version,
  {5d818279-b88e-4368-83e0-9bb006be0775}, ! Handle
  0.9.3;                                  ! Version Identifier

OS:SizingPeriod:DesignDay,
  {82a0cd75-2e2b-4b77-be59-1c2e02239349}, ! Handle
  Abilene Ann Htg Wind 99% Condns WS=>MCDB, ! Name
  12.1,                                   ! Maximum Dry-Bulb Temperature {C}
  0,                                      ! Daily Dry-Bulb Temperature Range {deltaC}
  12.1,                                   ! Humidity Indicating Conditions at Maximum Dry-Bulb {BasedOnField A3}
  94935,                                  ! Barometric Pressure {Pa}
  12,                                     ! Wind Speed {m/s}
  10,                                     ! Wind Direction {deg}
  0,                                      ! Sky Clearness
  0,                                      ! Rain Indicator
  0,                                      ! Snow Indicator
  21,                                     ! Day of Month
  1,                                      ! Month
  WinterDesignDay,                        ! Day Type
  0,                                      ! Daylight Saving Time Indicator
  Wetbulb,                                ! Humidity Indicating Type
  ,                                       ! Humidity Indicating Day Schedule Name
  DefaultMultipliers,                     ! Dry-Bulb Temperature Range Modifier Type
  ,                                       ! Dry-Bulb Temperature Range Modifier Schedule Name
  ASHRAEClearSky;                         ! Solar Model Indicator

OS:ComponentData,
  {c75aab82-f345-463b-a27e-7888e6a9af59}, ! Handle
  Component Data 1,                       ! Name
  {9bcd7aa8-34eb-45fc-970d-13dfdcb3f3e7}, ! UUID
  {c80e8696-e42b-4648-85b5-dc2a5620ceac}, ! Version UUID
  1366310554,                             ! Creation Timestamp
  1366310554,                             ! Version Timestamp
  {82a0cd75-2e2b-4b77-be59-1c2e02239349}; ! Name of Object 1

