
OS:Version,
  {37c42a09-ddce-4a89-8377-0bb37b2e33f9}, ! Handle
  0.9.3;                                  ! Version Identifier

OS:SizingPeriod:DesignDay,
  {7376f0cc-ef4f-4ea8-827a-c98de3b798d0}, ! Handle
  Fort Collins  Awos Ann Clg 2% Condns WB=>MDB, ! Name
  27.2,                                   ! Maximum Dry-Bulb Temperature {C}
  15.7,                                   ! Daily Dry-Bulb Temperature Range {deltaC}
  16.8,                                   ! Humidity Indicating Conditions at Maximum Dry-Bulb {BasedOnField A3}
  84255,                                  ! Barometric Pressure {Pa}
  4.1,                                    ! Wind Speed {m/s}
  150,                                    ! Wind Direction {deg}
  0,                                      ! Sky Clearness
  0,                                      ! Rain Indicator
  0,                                      ! Snow Indicator
  21,                                     ! Day of Month
  7,                                      ! Month
  SummerDesignDay,                        ! Day Type
  0,                                      ! Daylight Saving Time Indicator
  Wetbulb,                                ! Humidity Indicating Type
  ,                                       ! Humidity Indicating Day Schedule Name
  DefaultMultipliers,                     ! Dry-Bulb Temperature Range Modifier Type
  ,                                       ! Dry-Bulb Temperature Range Modifier Schedule Name
  ASHRAETau,                              ! Solar Model Indicator
  ,                                       ! Beam Solar Day Schedule Name
  ,                                       ! Diffuse Solar Day Schedule Name
  0.431,                                  ! ASHRAE Taub {dimensionless}
  2.008;                                  ! ASHRAE Taud {dimensionless}

OS:ComponentData,
  {468b177d-f99a-47bc-b6f4-a07ebae13e8a}, ! Handle
  Component Data 1,                       ! Name
  {a7d56698-ae58-411c-8eb4-b47b20a0c77d}, ! UUID
  {c69e186f-55b2-40b7-b279-80596957f1bd}, ! Version UUID
  1366306691,                             ! Creation Timestamp
  1366306691,                             ! Version Timestamp
  {7376f0cc-ef4f-4ea8-827a-c98de3b798d0}; ! Name of Object 1

