
OS:Version,
  {73d273e4-1ff0-465e-86b7-b2cb93ba6370}, ! Handle
  0.9.3;                                  ! Version Identifier

OS:SizingPeriod:DesignDay,
  {9af42a98-0603-4be7-b0fd-a6f4db1466ce}, ! Handle
  Bowling Green Warren Co Ap Ann Clg 2% Condns Enth=>MDB, ! Name
  29.8,                                   ! Maximum Dry-Bulb Temperature {C}
  10.7,                                   ! Daily Dry-Bulb Temperature Range {deltaC}
  75300,                                  ! Humidity Indicating Conditions at Maximum Dry-Bulb {BasedOnField A3}
  99406,                                  ! Barometric Pressure {Pa}
  3.8,                                    ! Wind Speed {m/s}
  240,                                    ! Wind Direction {deg}
  0,                                      ! Sky Clearness
  0,                                      ! Rain Indicator
  0,                                      ! Snow Indicator
  21,                                     ! Day of Month
  7,                                      ! Month
  SummerDesignDay,                        ! Day Type
  0,                                      ! Daylight Saving Time Indicator
  Enthalpy,                               ! Humidity Indicating Type
  ,                                       ! Humidity Indicating Day Schedule Name
  DefaultMultipliers,                     ! Dry-Bulb Temperature Range Modifier Type
  ,                                       ! Dry-Bulb Temperature Range Modifier Schedule Name
  ASHRAETau,                              ! Solar Model Indicator
  ,                                       ! Beam Solar Day Schedule Name
  ,                                       ! Diffuse Solar Day Schedule Name
  0.527,                                  ! ASHRAE Taub {dimensionless}
  1.838;                                  ! ASHRAE Taud {dimensionless}

OS:ComponentData,
  {4d232534-7643-4acb-980d-b620d10c5a99}, ! Handle
  Component Data 1,                       ! Name
  {21e0d01e-4eb8-448b-beb3-80218c103c64}, ! UUID
  {f9731a63-3ff2-4183-aa34-4daef4202ad3}, ! Version UUID
  1366307613,                             ! Creation Timestamp
  1366307613,                             ! Version Timestamp
  {9af42a98-0603-4be7-b0fd-a6f4db1466ce}; ! Name of Object 1

