
OS:Version,
  {168c697c-b2ff-4e3a-8fa3-bb569babf9e4}, ! Handle
  0.9.3;                                  ! Version Identifier

OS:SizingPeriod:DesignDay,
  {cc45399a-567b-4ae7-be8e-4ffe932aa087}, ! Handle
  Edwards Afb Ann Htg Wind 99.6% Condns WS=>MCDB, ! Name
  11.5,                                   ! Maximum Dry-Bulb Temperature {C}
  0,                                      ! Daily Dry-Bulb Temperature Range {deltaC}
  11.5,                                   ! Humidity Indicating Conditions at Maximum Dry-Bulb {BasedOnField A3}
  93126,                                  ! Barometric Pressure {Pa}
  12.7,                                   ! Wind Speed {m/s}
  250,                                    ! Wind Direction {deg}
  0,                                      ! Sky Clearness
  0,                                      ! Rain Indicator
  0,                                      ! Snow Indicator
  21,                                     ! Day of Month
  12,                                     ! Month
  WinterDesignDay,                        ! Day Type
  0,                                      ! Daylight Saving Time Indicator
  Wetbulb,                                ! Humidity Indicating Type
  ,                                       ! Humidity Indicating Day Schedule Name
  DefaultMultipliers,                     ! Dry-Bulb Temperature Range Modifier Type
  ,                                       ! Dry-Bulb Temperature Range Modifier Schedule Name
  ASHRAEClearSky;                         ! Solar Model Indicator

OS:ComponentData,
  {f12f8617-99b2-472e-aa84-d868841398b4}, ! Handle
  Component Data 1,                       ! Name
  {f36db638-0dbb-4ab5-9995-b3ae36d3068b}, ! UUID
  {860e0a59-9e0a-4add-aada-ffb69ae1e155}, ! Version UUID
  1366306420,                             ! Creation Timestamp
  1366306420,                             ! Version Timestamp
  {cc45399a-567b-4ae7-be8e-4ffe932aa087}; ! Name of Object 1

