
OS:Version,
  {1f01c33e-be57-480d-b655-fb6a40e71793}, ! Handle
  0.9.3;                                  ! Version Identifier

OS:SizingPeriod:DesignDay,
  {8908ef2d-e8cf-4bca-acb4-8532d0c62d73}, ! Handle
  Adak NAS Ann Clg 1% Condns Enth=>MDB,   ! Name
  13.7,                                   ! Maximum Dry-Bulb Temperature {C}
  4.9,                                    ! Daily Dry-Bulb Temperature Range {deltaC}
  33700,                                  ! Humidity Indicating Conditions at Maximum Dry-Bulb {BasedOnField A3}
  101265,                                 ! Barometric Pressure {Pa}
  4.9,                                    ! Wind Speed {m/s}
  180,                                    ! Wind Direction {deg}
  0,                                      ! Sky Clearness
  0,                                      ! Rain Indicator
  0,                                      ! Snow Indicator
  21,                                     ! Day of Month
  8,                                      ! Month
  SummerDesignDay,                        ! Day Type
  0,                                      ! Daylight Saving Time Indicator
  Enthalpy,                               ! Humidity Indicating Type
  ,                                       ! Humidity Indicating Day Schedule Name
  DefaultMultipliers,                     ! Dry-Bulb Temperature Range Modifier Type
  ,                                       ! Dry-Bulb Temperature Range Modifier Schedule Name
  ASHRAETau,                              ! Solar Model Indicator
  ,                                       ! Beam Solar Day Schedule Name
  ,                                       ! Diffuse Solar Day Schedule Name
  0.394,                                  ! ASHRAE Taub {dimensionless}
  2.21;                                   ! ASHRAE Taud {dimensionless}

OS:ComponentData,
  {e449a379-8271-4aa2-b03b-fdf18c817afa}, ! Handle
  Component Data 1,                       ! Name
  {eda76a39-d718-4ae0-b464-62017926ab34}, ! UUID
  {d75914e2-eaee-4d95-ae5f-95d2a967d499}, ! Version UUID
  1364004395,                             ! Creation Timestamp
  1364004395,                             ! Version Timestamp
  {8908ef2d-e8cf-4bca-acb4-8532d0c62d73}; ! Name of Object 1

