
OS:Version,
  {f662e76a-a5c6-492c-a90b-d5248402c3c3}, ! Handle
  0.9.3;                                  ! Version Identifier

OS:SizingPeriod:DesignDay,
  {2b0a16a1-decb-4613-8397-70276afc5115}, ! Handle
  BETHEL Ann Clg .4% Condns WB=>MDB,      ! Name
  20.6,                                   ! Maximum Dry-Bulb Temperature {C}
  7.7,                                    ! Daily Dry-Bulb Temperature Range {deltaC}
  15.7,                                   ! Humidity Indicating Conditions at Maximum Dry-Bulb {BasedOnField A3}
  100774,                                 ! Barometric Pressure {Pa}
  4.9,                                    ! Wind Speed {m/s}
  10,                                     ! Wind Direction {deg}
  0,                                      ! Sky Clearness
  0,                                      ! Rain Indicator
  0,                                      ! Snow Indicator
  21,                                     ! Day of Month
  7,                                      ! Month
  SummerDesignDay,                        ! Day Type
  0,                                      ! Daylight Saving Time Indicator
  Wetbulb,                                ! Humidity Indicating Type
  ,                                       ! Humidity Indicating Day Schedule Name
  DefaultMultipliers,                     ! Dry-Bulb Temperature Range Modifier Type
  ,                                       ! Dry-Bulb Temperature Range Modifier Schedule Name
  ASHRAETau,                              ! Solar Model Indicator
  ,                                       ! Beam Solar Day Schedule Name
  ,                                       ! Diffuse Solar Day Schedule Name
  0.383,                                  ! ASHRAE Taub {dimensionless}
  2.185;                                  ! ASHRAE Taud {dimensionless}

OS:ComponentData,
  {f4ada10d-dbcc-4718-949b-e96a780a4eb7}, ! Handle
  Component Data 1,                       ! Name
  {ebf833ab-ee1b-4ef4-a6ed-78a7b5bf79fa}, ! UUID
  {b2a2a7a3-e918-4b76-ad4d-90dd30319aab}, ! Version UUID
  1366304747,                             ! Creation Timestamp
  1366304747,                             ! Version Timestamp
  {2b0a16a1-decb-4613-8397-70276afc5115}; ! Name of Object 1

