
OS:Version,
  {1b4737d2-e876-4f4a-adf6-b3b8127f9104}, ! Handle
  0.9.3;                                  ! Version Identifier

OS:SizingPeriod:DesignDay,
  {35057f09-2d2d-4b1d-8c68-5cf658e00cb5}, ! Handle
  Gulkana Intermediate Field Ann Clg 2% Condns WB=>MDB, ! Name
  19.9,                                   ! Maximum Dry-Bulb Temperature {C}
  11.7,                                   ! Daily Dry-Bulb Temperature Range {deltaC}
  13.1,                                   ! Humidity Indicating Conditions at Maximum Dry-Bulb {BasedOnField A3}
  95713,                                  ! Barometric Pressure {Pa}
  2.6,                                    ! Wind Speed {m/s}
  160,                                    ! Wind Direction {deg}
  0,                                      ! Sky Clearness
  0,                                      ! Rain Indicator
  0,                                      ! Snow Indicator
  21,                                     ! Day of Month
  7,                                      ! Month
  SummerDesignDay,                        ! Day Type
  0,                                      ! Daylight Saving Time Indicator
  Wetbulb,                                ! Humidity Indicating Type
  ,                                       ! Humidity Indicating Day Schedule Name
  DefaultMultipliers,                     ! Dry-Bulb Temperature Range Modifier Type
  ,                                       ! Dry-Bulb Temperature Range Modifier Schedule Name
  ASHRAETau,                              ! Solar Model Indicator
  ,                                       ! Beam Solar Day Schedule Name
  ,                                       ! Diffuse Solar Day Schedule Name
  0.385,                                  ! ASHRAE Taub {dimensionless}
  2.111;                                  ! ASHRAE Taud {dimensionless}

OS:ComponentData,
  {57cbd05d-250b-4053-b5f6-8c4a165ad7e5}, ! Handle
  Component Data 1,                       ! Name
  {ac8fde54-9292-438a-b00d-2b2c8c086d53}, ! UUID
  {4426061c-714e-464d-be58-f5f958e28b8a}, ! Version UUID
  1366305294,                             ! Creation Timestamp
  1366305294,                             ! Version Timestamp
  {35057f09-2d2d-4b1d-8c68-5cf658e00cb5}; ! Name of Object 1

