
OS:Version,
  {ae0135e7-8b68-49f7-9660-81354a96d9ba}, ! Handle
  0.9.3;                                  ! Version Identifier

OS:SizingPeriod:DesignDay,
  {830e3597-bb57-4fe7-9fd8-a57e7f2d55e6}, ! Handle
  Fairbanks/Int'l Airpor Ann Clg 2% Condns WB=>MDB, ! Name
  21.9,                                   ! Maximum Dry-Bulb Temperature {C}
  10.2,                                   ! Daily Dry-Bulb Temperature Range {deltaC}
  15.6,                                   ! Humidity Indicating Conditions at Maximum Dry-Bulb {BasedOnField A3}
  99678,                                  ! Barometric Pressure {Pa}
  3.1,                                    ! Wind Speed {m/s}
  180,                                    ! Wind Direction {deg}
  0,                                      ! Sky Clearness
  0,                                      ! Rain Indicator
  0,                                      ! Snow Indicator
  21,                                     ! Day of Month
  7,                                      ! Month
  SummerDesignDay,                        ! Day Type
  0,                                      ! Daylight Saving Time Indicator
  Wetbulb,                                ! Humidity Indicating Type
  ,                                       ! Humidity Indicating Day Schedule Name
  DefaultMultipliers,                     ! Dry-Bulb Temperature Range Modifier Type
  ,                                       ! Dry-Bulb Temperature Range Modifier Schedule Name
  ASHRAETau,                              ! Solar Model Indicator
  ,                                       ! Beam Solar Day Schedule Name
  ,                                       ! Diffuse Solar Day Schedule Name
  0.387,                                  ! ASHRAE Taub {dimensionless}
  2.212;                                  ! ASHRAE Taud {dimensionless}

OS:ComponentData,
  {0953971a-82d6-4dbb-81e2-52a844070611}, ! Handle
  Component Data 1,                       ! Name
  {5ebfde38-737b-4ac2-84f0-d386687e325d}, ! UUID
  {18e60825-44a5-4855-a4ce-67345957fbe7}, ! Version UUID
  1366305256,                             ! Creation Timestamp
  1366305256,                             ! Version Timestamp
  {830e3597-bb57-4fe7-9fd8-a57e7f2d55e6}; ! Name of Object 1

