
OS:Version,
  {bec1db40-d4a8-4e12-814d-5063bd2f91d8}, ! Handle
  0.9.3;                                  ! Version Identifier

OS:SizingPeriod:DesignDay,
  {70465519-8cde-4b7a-9ebf-0653a9c9ce71}, ! Handle
  Louisville Standiford Field Ann Clg 2% Condns DB=>MWB, ! Name
  31.7,                                   ! Maximum Dry-Bulb Temperature {C}
  9.7,                                    ! Daily Dry-Bulb Temperature Range {deltaC}
  23.5,                                   ! Humidity Indicating Conditions at Maximum Dry-Bulb {BasedOnField A3}
  99571,                                  ! Barometric Pressure {Pa}
  4.2,                                    ! Wind Speed {m/s}
  240,                                    ! Wind Direction {deg}
  0,                                      ! Sky Clearness
  0,                                      ! Rain Indicator
  0,                                      ! Snow Indicator
  21,                                     ! Day of Month
  7,                                      ! Month
  SummerDesignDay,                        ! Day Type
  0,                                      ! Daylight Saving Time Indicator
  Wetbulb,                                ! Humidity Indicating Type
  ,                                       ! Humidity Indicating Day Schedule Name
  DefaultMultipliers,                     ! Dry-Bulb Temperature Range Modifier Type
  ,                                       ! Dry-Bulb Temperature Range Modifier Schedule Name
  ASHRAETau,                              ! Solar Model Indicator
  ,                                       ! Beam Solar Day Schedule Name
  ,                                       ! Diffuse Solar Day Schedule Name
  0.51,                                   ! ASHRAE Taub {dimensionless}
  1.872;                                  ! ASHRAE Taud {dimensionless}

OS:ComponentData,
  {cf844160-1d8a-4986-95e0-4a786871dd2f}, ! Handle
  Component Data 1,                       ! Name
  {6939ec60-1460-481f-889c-3882e296b64f}, ! UUID
  {40cc3619-0035-458f-a6b3-c25e24f94bf4}, ! Version UUID
  1366307671,                             ! Creation Timestamp
  1366307671,                             ! Version Timestamp
  {70465519-8cde-4b7a-9ebf-0653a9c9ce71}; ! Name of Object 1

