
OS:Version,
  {2fca8fa2-2827-457f-b263-cfddbf3c7465}, ! Handle
  0.9.3;                                  ! Version Identifier

OS:SizingPeriod:DesignDay,
  {d5872442-d222-450c-b8ff-d0fec095da66}, ! Handle
  Flint Bishop Intl Arpt Ann Clg .4% Condns WB=>MDB, ! Name
  29.7,                                   ! Maximum Dry-Bulb Temperature {C}
  11.7,                                   ! Daily Dry-Bulb Temperature Range {deltaC}
  24.7,                                   ! Humidity Indicating Conditions at Maximum Dry-Bulb {BasedOnField A3}
  98545,                                  ! Barometric Pressure {Pa}
  5.3,                                    ! Wind Speed {m/s}
  250,                                    ! Wind Direction {deg}
  0,                                      ! Sky Clearness
  0,                                      ! Rain Indicator
  0,                                      ! Snow Indicator
  21,                                     ! Day of Month
  7,                                      ! Month
  SummerDesignDay,                        ! Day Type
  0,                                      ! Daylight Saving Time Indicator
  Wetbulb,                                ! Humidity Indicating Type
  ,                                       ! Humidity Indicating Day Schedule Name
  DefaultMultipliers,                     ! Dry-Bulb Temperature Range Modifier Type
  ,                                       ! Dry-Bulb Temperature Range Modifier Schedule Name
  ASHRAETau,                              ! Solar Model Indicator
  ,                                       ! Beam Solar Day Schedule Name
  ,                                       ! Diffuse Solar Day Schedule Name
  0.449,                                  ! ASHRAE Taub {dimensionless}
  2.044;                                  ! ASHRAE Taud {dimensionless}

OS:ComponentData,
  {96aab1a0-f43c-4b91-83d5-f16e5a0a32b2}, ! Handle
  Component Data 1,                       ! Name
  {bf9e09f8-b400-4f46-a0aa-18ba7815d645}, ! UUID
  {bfe51622-d8f2-43f7-9b2d-80ffe6da4256}, ! Version UUID
  1366308000,                             ! Creation Timestamp
  1366308000,                             ! Version Timestamp
  {d5872442-d222-450c-b8ff-d0fec095da66}; ! Name of Object 1

