
OS:Version,
  {5ecda183-2b5b-4e16-a8fe-dce80346acad}, ! Handle
  0.9.3;                                  ! Version Identifier

OS:SizingPeriod:DesignDay,
  {f5bb8441-bbec-42a2-a78a-711439decca0}, ! Handle
  ANNETTE Ann Hum_n 99.6% Condns DP=>MCDB, ! Name
  -6.2,                                   ! Maximum Dry-Bulb Temperature {C}
  0,                                      ! Daily Dry-Bulb Temperature Range {deltaC}
  -18.9,                                  ! Humidity Indicating Conditions at Maximum Dry-Bulb {BasedOnField A3}
  100917,                                 ! Barometric Pressure {Pa}
  3.1,                                    ! Wind Speed {m/s}
  50,                                     ! Wind Direction {deg}
  0,                                      ! Sky Clearness
  0,                                      ! Rain Indicator
  0,                                      ! Snow Indicator
  21,                                     ! Day of Month
  1,                                      ! Month
  WinterDesignDay,                        ! Day Type
  0,                                      ! Daylight Saving Time Indicator
  Dewpoint,                               ! Humidity Indicating Type
  ,                                       ! Humidity Indicating Day Schedule Name
  DefaultMultipliers,                     ! Dry-Bulb Temperature Range Modifier Type
  ,                                       ! Dry-Bulb Temperature Range Modifier Schedule Name
  ASHRAEClearSky;                         ! Solar Model Indicator

OS:ComponentData,
  {52471b36-b8fd-4313-91c3-e950d2b7fcf8}, ! Handle
  Component Data 1,                       ! Name
  {8e9aa1b8-4bec-4da8-8f3a-3dfc4e92ecf5}, ! UUID
  {57f8e8fd-6077-47a7-88da-357f82f64d4d}, ! Version UUID
  1366304714,                             ! Creation Timestamp
  1366304714,                             ! Version Timestamp
  {f5bb8441-bbec-42a2-a78a-711439decca0}; ! Name of Object 1

