
OS:Version,
  {228599a2-57e5-41fc-a4bb-ab9e1badd5d3}, ! Handle
  0.9.3;                                  ! Version Identifier

OS:SizingPeriod:DesignDay,
  {b7a7e661-82a5-4787-9d07-c2f463636a75}, ! Handle
  Jackson Reynolds Field Ann Htg Wind 99.6% Condns WS=>MCDB, ! Name
  -3.9,                                   ! Maximum Dry-Bulb Temperature {C}
  0,                                      ! Daily Dry-Bulb Temperature Range {deltaC}
  -3.9,                                   ! Humidity Indicating Conditions at Maximum Dry-Bulb {BasedOnField A3}
  97726,                                  ! Barometric Pressure {Pa}
  11,                                     ! Wind Speed {m/s}
  230,                                    ! Wind Direction {deg}
  0,                                      ! Sky Clearness
  0,                                      ! Rain Indicator
  0,                                      ! Snow Indicator
  21,                                     ! Day of Month
  1,                                      ! Month
  WinterDesignDay,                        ! Day Type
  0,                                      ! Daylight Saving Time Indicator
  Wetbulb,                                ! Humidity Indicating Type
  ,                                       ! Humidity Indicating Day Schedule Name
  DefaultMultipliers,                     ! Dry-Bulb Temperature Range Modifier Type
  ,                                       ! Dry-Bulb Temperature Range Modifier Schedule Name
  ASHRAEClearSky;                         ! Solar Model Indicator

OS:ComponentData,
  {a466cc23-058c-43a8-bdd7-b1cdbc4a8cc6}, ! Handle
  Component Data 1,                       ! Name
  {b4395175-95e5-43fb-babe-37b4b843d3ca}, ! UUID
  {8c304213-7988-4868-8193-8c3aeeed062d}, ! Version UUID
  1366308044,                             ! Creation Timestamp
  1366308044,                             ! Version Timestamp
  {b7a7e661-82a5-4787-9d07-c2f463636a75}; ! Name of Object 1

