
OS:Version,
  {7c69684f-0d7e-4343-b07c-3ce2161954b8}, ! Handle
  0.9.3;                                  ! Version Identifier

OS:SizingPeriod:DesignDay,
  {8004035d-a77c-4192-b235-c84b9f83862d}, ! Handle
  Abilene Ann Clg 1% Condns DP=>MDB,      ! Name
  26.3,                                   ! Maximum Dry-Bulb Temperature {C}
  11.6,                                   ! Daily Dry-Bulb Temperature Range {deltaC}
  21.6,                                   ! Humidity Indicating Conditions at Maximum Dry-Bulb {BasedOnField A3}
  94935,                                  ! Barometric Pressure {Pa}
  5.3,                                    ! Wind Speed {m/s}
  160,                                    ! Wind Direction {deg}
  0,                                      ! Sky Clearness
  0,                                      ! Rain Indicator
  0,                                      ! Snow Indicator
  21,                                     ! Day of Month
  7,                                      ! Month
  SummerDesignDay,                        ! Day Type
  0,                                      ! Daylight Saving Time Indicator
  Dewpoint,                               ! Humidity Indicating Type
  ,                                       ! Humidity Indicating Day Schedule Name
  DefaultMultipliers,                     ! Dry-Bulb Temperature Range Modifier Type
  ,                                       ! Dry-Bulb Temperature Range Modifier Schedule Name
  ASHRAETau,                              ! Solar Model Indicator
  ,                                       ! Beam Solar Day Schedule Name
  ,                                       ! Diffuse Solar Day Schedule Name
  0.426,                                  ! ASHRAE Taub {dimensionless}
  2.172;                                  ! ASHRAE Taud {dimensionless}

OS:ComponentData,
  {88a50b33-6299-4195-b32e-20f9c7533eed}, ! Handle
  Component Data 1,                       ! Name
  {02aa79c3-5ea2-463b-adf5-ee6d841c9109}, ! UUID
  {185e1311-7c41-4eca-8c14-64791bca60ce}, ! Version UUID
  1366310555,                             ! Creation Timestamp
  1366310555,                             ! Version Timestamp
  {8004035d-a77c-4192-b235-c84b9f83862d}; ! Name of Object 1

