
OS:Version,
  {e034dc0b-a57c-4a89-9886-1bd360814ab4}, ! Handle
  0.9.3;                                  ! Version Identifier

OS:SizingPeriod:DesignDay,
  {4dccf11c-bc89-4723-abdd-7377a2ba5bb1}, ! Handle
  Blythe Riverside Co Arpt Ann Hum_n 99% Condns DP=>MCDB, ! Name
  10.8,                                   ! Maximum Dry-Bulb Temperature {C}
  0,                                      ! Daily Dry-Bulb Temperature Range {deltaC}
  -14.9,                                  ! Humidity Indicating Conditions at Maximum Dry-Bulb {BasedOnField A3}
  99904,                                  ! Barometric Pressure {Pa}
  2.1,                                    ! Wind Speed {m/s}
  350,                                    ! Wind Direction {deg}
  0,                                      ! Sky Clearness
  0,                                      ! Rain Indicator
  0,                                      ! Snow Indicator
  21,                                     ! Day of Month
  12,                                     ! Month
  WinterDesignDay,                        ! Day Type
  0,                                      ! Daylight Saving Time Indicator
  Dewpoint,                               ! Humidity Indicating Type
  ,                                       ! Humidity Indicating Day Schedule Name
  DefaultMultipliers,                     ! Dry-Bulb Temperature Range Modifier Type
  ,                                       ! Dry-Bulb Temperature Range Modifier Schedule Name
  ASHRAEClearSky;                         ! Solar Model Indicator

OS:ComponentData,
  {cc55e442-b55a-47f1-b532-c41a0779f0e3}, ! Handle
  Component Data 1,                       ! Name
  {54facf3b-e531-4e08-a7bf-8508a516d753}, ! UUID
  {3ee52ac2-52e1-4e8e-b6c6-c0f703846e42}, ! Version UUID
  1366306389,                             ! Creation Timestamp
  1366306389,                             ! Version Timestamp
  {4dccf11c-bc89-4723-abdd-7377a2ba5bb1}; ! Name of Object 1

