
OS:Version,
  {166ab278-5652-4c54-9544-dea204ba27fb}, ! Handle
  0.9.3;                                  ! Version Identifier

OS:SizingPeriod:DesignDay,
  {9b5e6767-1168-47b0-a089-1cd7b7115b75}, ! Handle
  Chula Vista Brown Field Naas Ann Clg .4% Condns Enth=>MDB, ! Name
  27.4,                                   ! Maximum Dry-Bulb Temperature {C}
  8.9,                                    ! Daily Dry-Bulb Temperature Range {deltaC}
  63900,                                  ! Humidity Indicating Conditions at Maximum Dry-Bulb {BasedOnField A3}
  99429,                                  ! Barometric Pressure {Pa}
  4.1,                                    ! Wind Speed {m/s}
  280,                                    ! Wind Direction {deg}
  0,                                      ! Sky Clearness
  0,                                      ! Rain Indicator
  0,                                      ! Snow Indicator
  21,                                     ! Day of Month
  8,                                      ! Month
  SummerDesignDay,                        ! Day Type
  0,                                      ! Daylight Saving Time Indicator
  Enthalpy,                               ! Humidity Indicating Type
  ,                                       ! Humidity Indicating Day Schedule Name
  DefaultMultipliers,                     ! Dry-Bulb Temperature Range Modifier Type
  ,                                       ! Dry-Bulb Temperature Range Modifier Schedule Name
  ASHRAETau,                              ! Solar Model Indicator
  ,                                       ! Beam Solar Day Schedule Name
  ,                                       ! Diffuse Solar Day Schedule Name
  0.412,                                  ! ASHRAE Taub {dimensionless}
  2.276;                                  ! ASHRAE Taud {dimensionless}

OS:ComponentData,
  {be1c9492-36ac-416f-bfb1-54ac1febb91a}, ! Handle
  Component Data 1,                       ! Name
  {c0f7b5dd-f32a-4ddf-923c-d51829085c23}, ! UUID
  {0ac0a96b-3ca9-417e-a33e-52f9f2e25b9e}, ! Version UUID
  1366306415,                             ! Creation Timestamp
  1366306415,                             ! Version Timestamp
  {9b5e6767-1168-47b0-a089-1cd7b7115b75}; ! Name of Object 1

