
OS:Version,
  {a362ef62-ee08-4566-92b8-5034a718374d}, ! Handle
  0.9.3;                                  ! Version Identifier

OS:SizingPeriod:DesignDay,
  {f7ce1085-a8aa-460a-9e44-3c3620f50349}, ! Handle
  Fulton Co Arpt Brow Ann Htg Wind 99% Condns WS=>MCDB, ! Name
  3.4,                                    ! Maximum Dry-Bulb Temperature {C}
  0,                                      ! Daily Dry-Bulb Temperature Range {deltaC}
  3.4,                                    ! Humidity Indicating Conditions at Maximum Dry-Bulb {BasedOnField A3}
  98205,                                  ! Barometric Pressure {Pa}
  8.4,                                    ! Wind Speed {m/s}
  330,                                    ! Wind Direction {deg}
  0,                                      ! Sky Clearness
  0,                                      ! Rain Indicator
  0,                                      ! Snow Indicator
  21,                                     ! Day of Month
  1,                                      ! Month
  WinterDesignDay,                        ! Day Type
  0,                                      ! Daylight Saving Time Indicator
  Wetbulb,                                ! Humidity Indicating Type
  ,                                       ! Humidity Indicating Day Schedule Name
  DefaultMultipliers,                     ! Dry-Bulb Temperature Range Modifier Type
  ,                                       ! Dry-Bulb Temperature Range Modifier Schedule Name
  ASHRAEClearSky;                         ! Solar Model Indicator

OS:ComponentData,
  {5bf9f7f8-359e-486a-b1ac-be695cd980ee}, ! Handle
  Component Data 1,                       ! Name
  {9f162e6e-4133-4cf8-9542-31507b733e41}, ! UUID
  {0266c455-7b45-46b9-b26a-0ffafdf590bc}, ! Version UUID
  1366307013,                             ! Creation Timestamp
  1366307013,                             ! Version Timestamp
  {f7ce1085-a8aa-460a-9e44-3c3620f50349}; ! Name of Object 1

