
OS:Version,
  {6740dbd3-5edb-4c93-91c0-1f878adf06f1}, ! Handle
  0.9.3;                                  ! Version Identifier

OS:SizingPeriod:DesignDay,
  {a78856c4-b4bc-4167-b826-955f76372c11}, ! Handle
  Beatrice Municipal Ann Htg 99.6% Condns DB, ! Name
  -18.3,                                  ! Maximum Dry-Bulb Temperature {C}
  0,                                      ! Daily Dry-Bulb Temperature Range {deltaC}
  -18.3,                                  ! Humidity Indicating Conditions at Maximum Dry-Bulb {BasedOnField A3}
  96576,                                  ! Barometric Pressure {Pa}
  3.7,                                    ! Wind Speed {m/s}
  10,                                     ! Wind Direction {deg}
  0,                                      ! Sky Clearness
  0,                                      ! Rain Indicator
  0,                                      ! Snow Indicator
  21,                                     ! Day of Month
  1,                                      ! Month
  WinterDesignDay,                        ! Day Type
  0,                                      ! Daylight Saving Time Indicator
  Wetbulb,                                ! Humidity Indicating Type
  ,                                       ! Humidity Indicating Day Schedule Name
  DefaultMultipliers,                     ! Dry-Bulb Temperature Range Modifier Type
  ,                                       ! Dry-Bulb Temperature Range Modifier Schedule Name
  ASHRAEClearSky;                         ! Solar Model Indicator

OS:ComponentData,
  {69e74ea9-890c-4e4c-a433-fa651b01b393}, ! Handle
  Component Data 1,                       ! Name
  {a89b70b5-ea3b-46f5-b8de-b1c3a7bb42d3}, ! UUID
  {b65ea045-06c6-40f8-adaf-5b787561c65c}, ! Version UUID
  1366309085,                             ! Creation Timestamp
  1366309085,                             ! Version Timestamp
  {a78856c4-b4bc-4167-b826-955f76372c11}; ! Name of Object 1

