
OS:Version,
  {23f3c030-fe30-47c6-8792-c952ee7afe22}, ! Handle
  0.9.3;                                  ! Version Identifier

OS:SizingPeriod:DesignDay,
  {b55a85bd-f903-4fab-9f48-ddb8f4a1c5a0}, ! Handle
  Denver Centennial  Golden   N Ann Clg .4% Condns WB=>MDB, ! Name
  27.3,                                   ! Maximum Dry-Bulb Temperature {C}
  15.2,                                   ! Daily Dry-Bulb Temperature Range {deltaC}
  18.4,                                   ! Humidity Indicating Conditions at Maximum Dry-Bulb {BasedOnField A3}
  81198,                                  ! Barometric Pressure {Pa}
  4.9,                                    ! Wind Speed {m/s}
  0,                                      ! Wind Direction {deg}
  0,                                      ! Sky Clearness
  0,                                      ! Rain Indicator
  0,                                      ! Snow Indicator
  21,                                     ! Day of Month
  7,                                      ! Month
  SummerDesignDay,                        ! Day Type
  0,                                      ! Daylight Saving Time Indicator
  Wetbulb,                                ! Humidity Indicating Type
  ,                                       ! Humidity Indicating Day Schedule Name
  DefaultMultipliers,                     ! Dry-Bulb Temperature Range Modifier Type
  ,                                       ! Dry-Bulb Temperature Range Modifier Schedule Name
  ASHRAETau,                              ! Solar Model Indicator
  ,                                       ! Beam Solar Day Schedule Name
  ,                                       ! Diffuse Solar Day Schedule Name
  0.424,                                  ! ASHRAE Taub {dimensionless}
  2.025;                                  ! ASHRAE Taud {dimensionless}

OS:ComponentData,
  {c9bf9e0f-f754-4a1f-b693-ca48b698e11b}, ! Handle
  Component Data 1,                       ! Name
  {478fe9bb-cc99-4abe-9f20-4abeda3639a9}, ! UUID
  {3451a653-0946-4a13-9c24-46ef1d6e45fc}, ! Version UUID
  1366306694,                             ! Creation Timestamp
  1366306694,                             ! Version Timestamp
  {b55a85bd-f903-4fab-9f48-ddb8f4a1c5a0}; ! Name of Object 1

