
OS:Version,
  {a3e40f82-dafd-4583-97d7-ba1a4db44102}, ! Handle
  0.9.3;                                  ! Version Identifier

OS:SizingPeriod:DesignDay,
  {c942636d-7b2d-4eb4-a3d1-f1cfaf997c28}, ! Handle
  Detroit Lakes Awos Ann Clg 1% Condns DB=>MWB, ! Name
  28.7,                                   ! Maximum Dry-Bulb Temperature {C}
  9.6,                                    ! Daily Dry-Bulb Temperature Range {deltaC}
  20.8,                                   ! Humidity Indicating Conditions at Maximum Dry-Bulb {BasedOnField A3}
  96311,                                  ! Barometric Pressure {Pa}
  5.5,                                    ! Wind Speed {m/s}
  180,                                    ! Wind Direction {deg}
  0,                                      ! Sky Clearness
  0,                                      ! Rain Indicator
  0,                                      ! Snow Indicator
  21,                                     ! Day of Month
  7,                                      ! Month
  SummerDesignDay,                        ! Day Type
  0,                                      ! Daylight Saving Time Indicator
  Wetbulb,                                ! Humidity Indicating Type
  ,                                       ! Humidity Indicating Day Schedule Name
  DefaultMultipliers,                     ! Dry-Bulb Temperature Range Modifier Type
  ,                                       ! Dry-Bulb Temperature Range Modifier Schedule Name
  ASHRAETau,                              ! Solar Model Indicator
  ,                                       ! Beam Solar Day Schedule Name
  ,                                       ! Diffuse Solar Day Schedule Name
  0.389,                                  ! ASHRAE Taub {dimensionless}
  2.272;                                  ! ASHRAE Taud {dimensionless}

OS:ComponentData,
  {0d223dc6-ed46-4c3f-bcd5-244f751f70a2}, ! Handle
  Component Data 1,                       ! Name
  {0c355306-9325-4803-98ec-06d6eaf98782}, ! UUID
  {113ab8ff-923d-4d0c-8323-39712c01955a}, ! Version UUID
  1366308193,                             ! Creation Timestamp
  1366308193,                             ! Version Timestamp
  {c942636d-7b2d-4eb4-a3d1-f1cfaf997c28}; ! Name of Object 1

