
OS:Version,
  {d315ef99-32dd-4d0b-b5e1-b10fe471c9a9}, ! Handle
  0.9.3;                                  ! Version Identifier

OS:SizingPeriod:DesignDay,
  {eb37dcb3-4173-48fb-adc8-201900804eec}, ! Handle
  Fort Dodge  Awos Ann Htg 99% Condns DB, ! Name
  -21.1,                                  ! Maximum Dry-Bulb Temperature {C}
  0,                                      ! Daily Dry-Bulb Temperature Range {deltaC}
  -21.1,                                  ! Humidity Indicating Conditions at Maximum Dry-Bulb {BasedOnField A3}
  97132,                                  ! Barometric Pressure {Pa}
  3.3,                                    ! Wind Speed {m/s}
  310,                                    ! Wind Direction {deg}
  0,                                      ! Sky Clearness
  0,                                      ! Rain Indicator
  0,                                      ! Snow Indicator
  21,                                     ! Day of Month
  1,                                      ! Month
  WinterDesignDay,                        ! Day Type
  0,                                      ! Daylight Saving Time Indicator
  Wetbulb,                                ! Humidity Indicating Type
  ,                                       ! Humidity Indicating Day Schedule Name
  DefaultMultipliers,                     ! Dry-Bulb Temperature Range Modifier Type
  ,                                       ! Dry-Bulb Temperature Range Modifier Schedule Name
  ASHRAEClearSky;                         ! Solar Model Indicator

OS:ComponentData,
  {4c8f6ed5-e062-4bba-a499-7a8213dbb0cc}, ! Handle
  Component Data 1,                       ! Name
  {f9225784-15f4-4620-91fb-ff49c689bfb3}, ! UUID
  {6a5ed31a-5d51-4fe3-bb8c-29b5b9f9ae95}, ! Version UUID
  1366307196,                             ! Creation Timestamp
  1366307196,                             ! Version Timestamp
  {eb37dcb3-4173-48fb-adc8-201900804eec}; ! Name of Object 1

