
OS:Version,
  {5cf25593-483d-4bb0-bdab-0b14897ddfc6}, ! Handle
  0.9.3;                                  ! Version Identifier

OS:SizingPeriod:DesignDay,
  {166a5cd4-3272-4cc6-918e-408fea06bfa7}, ! Handle
  Galveston Scholes Ann Clg .4% Condns DP=>MDB, ! Name
  28.9,                                   ! Maximum Dry-Bulb Temperature {C}
  5.7,                                    ! Daily Dry-Bulb Temperature Range {deltaC}
  27.1,                                   ! Humidity Indicating Conditions at Maximum Dry-Bulb {BasedOnField A3}
  101133,                                 ! Barometric Pressure {Pa}
  5.2,                                    ! Wind Speed {m/s}
  180,                                    ! Wind Direction {deg}
  0,                                      ! Sky Clearness
  0,                                      ! Rain Indicator
  0,                                      ! Snow Indicator
  21,                                     ! Day of Month
  8,                                      ! Month
  SummerDesignDay,                        ! Day Type
  0,                                      ! Daylight Saving Time Indicator
  Dewpoint,                               ! Humidity Indicating Type
  ,                                       ! Humidity Indicating Day Schedule Name
  DefaultMultipliers,                     ! Dry-Bulb Temperature Range Modifier Type
  ,                                       ! Dry-Bulb Temperature Range Modifier Schedule Name
  ASHRAETau,                              ! Solar Model Indicator
  ,                                       ! Beam Solar Day Schedule Name
  ,                                       ! Diffuse Solar Day Schedule Name
  0.503,                                  ! ASHRAE Taub {dimensionless}
  1.974;                                  ! ASHRAE Taud {dimensionless}

OS:ComponentData,
  {995f731f-b79a-45fa-b287-fd1cda8db678}, ! Handle
  Component Data 1,                       ! Name
  {95c8d777-0727-4564-bf79-3af2f1fd2e6c}, ! UUID
  {686dfb9a-f954-466b-a650-b23fd919fc41}, ! Version UUID
  1366310718,                             ! Creation Timestamp
  1366310718,                             ! Version Timestamp
  {166a5cd4-3272-4cc6-918e-408fea06bfa7}; ! Name of Object 1

