
OS:Version,
  {1200f342-e83f-4922-9ead-7dc2406a562b}, ! Handle
  0.9.3;                                  ! Version Identifier

OS:SizingPeriod:DesignDay,
  {38020934-907e-44f5-ae8b-a23d4cfb8e25}, ! Handle
  DAYTON Ann Clg 2% Condns WB=>MDB,       ! Name
  28.3,                                   ! Maximum Dry-Bulb Temperature {C}
  11,                                     ! Daily Dry-Bulb Temperature Range {deltaC}
  23.6,                                   ! Humidity Indicating Conditions at Maximum Dry-Bulb {BasedOnField A3}
  97703,                                  ! Barometric Pressure {Pa}
  3.9,                                    ! Wind Speed {m/s}
  240,                                    ! Wind Direction {deg}
  0,                                      ! Sky Clearness
  0,                                      ! Rain Indicator
  0,                                      ! Snow Indicator
  21,                                     ! Day of Month
  7,                                      ! Month
  SummerDesignDay,                        ! Day Type
  0,                                      ! Daylight Saving Time Indicator
  Wetbulb,                                ! Humidity Indicating Type
  ,                                       ! Humidity Indicating Day Schedule Name
  DefaultMultipliers,                     ! Dry-Bulb Temperature Range Modifier Type
  ,                                       ! Dry-Bulb Temperature Range Modifier Schedule Name
  ASHRAETau,                              ! Solar Model Indicator
  ,                                       ! Beam Solar Day Schedule Name
  ,                                       ! Diffuse Solar Day Schedule Name
  0.484,                                  ! ASHRAE Taub {dimensionless}
  1.94;                                   ! ASHRAE Taud {dimensionless}

OS:ComponentData,
  {315b6775-d68a-4f19-b854-755b9cae6478}, ! Handle
  Component Data 1,                       ! Name
  {f1d0464f-14d6-4c2b-b318-de68f907b13c}, ! UUID
  {44560dcf-f6f1-418d-8cda-8e9b47ee699a}, ! Version UUID
  1366309817,                             ! Creation Timestamp
  1366309817,                             ! Version Timestamp
  {38020934-907e-44f5-ae8b-a23d4cfb8e25}; ! Name of Object 1

