
OS:Version,
  {90e1ecd7-23c4-4360-8144-2f607eea722d}, ! Handle
  0.9.3;                                  ! Version Identifier

OS:SizingPeriod:DesignDay,
  {acffe603-cca9-414d-b2e2-ae1180b8ceb6}, ! Handle
  Lompoc  Awos Ann Clg 1% Condns Enth=>MDB, ! Name
  23.1,                                   ! Maximum Dry-Bulb Temperature {C}
  8.9,                                    ! Daily Dry-Bulb Temperature Range {deltaC}
  50000,                                  ! Humidity Indicating Conditions at Maximum Dry-Bulb {BasedOnField A3}
  101001,                                 ! Barometric Pressure {Pa}
  4.8,                                    ! Wind Speed {m/s}
  270,                                    ! Wind Direction {deg}
  0,                                      ! Sky Clearness
  0,                                      ! Rain Indicator
  0,                                      ! Snow Indicator
  21,                                     ! Day of Month
  8,                                      ! Month
  SummerDesignDay,                        ! Day Type
  0,                                      ! Daylight Saving Time Indicator
  Enthalpy,                               ! Humidity Indicating Type
  ,                                       ! Humidity Indicating Day Schedule Name
  DefaultMultipliers,                     ! Dry-Bulb Temperature Range Modifier Type
  ,                                       ! Dry-Bulb Temperature Range Modifier Schedule Name
  ASHRAETau,                              ! Solar Model Indicator
  ,                                       ! Beam Solar Day Schedule Name
  ,                                       ! Diffuse Solar Day Schedule Name
  0.369,                                  ! ASHRAE Taub {dimensionless}
  2.427;                                  ! ASHRAE Taud {dimensionless}

OS:ComponentData,
  {51ce4d38-07b5-4c37-a607-a3f91a7785c3}, ! Handle
  Component Data 1,                       ! Name
  {6df3a94b-7524-4aa0-a30f-751596b9eceb}, ! UUID
  {bc227cf4-9e71-469a-94ff-4b275144da9d}, ! Version UUID
  1366306467,                             ! Creation Timestamp
  1366306467,                             ! Version Timestamp
  {acffe603-cca9-414d-b2e2-ae1180b8ceb6}; ! Name of Object 1

