
OS:Version,
  {7d4fe076-6461-4c2c-9e44-588e1efc2ddc}, ! Handle
  0.9.3;                                  ! Version Identifier

OS:SizingPeriod:DesignDay,
  {23d80fab-69ae-4ce8-96cd-6bdf43104698}, ! Handle
  Fair Field Ann Clg 2% Condns Enth=>MDB, ! Name
  30.8,                                   ! Maximum Dry-Bulb Temperature {C}
  11,                                     ! Daily Dry-Bulb Temperature Range {deltaC}
  79400,                                  ! Humidity Indicating Conditions at Maximum Dry-Bulb {BasedOnField A3}
  98428,                                  ! Barometric Pressure {Pa}
  4.1,                                    ! Wind Speed {m/s}
  200,                                    ! Wind Direction {deg}
  0,                                      ! Sky Clearness
  0,                                      ! Rain Indicator
  0,                                      ! Snow Indicator
  21,                                     ! Day of Month
  7,                                      ! Month
  SummerDesignDay,                        ! Day Type
  0,                                      ! Daylight Saving Time Indicator
  Enthalpy,                               ! Humidity Indicating Type
  ,                                       ! Humidity Indicating Day Schedule Name
  DefaultMultipliers,                     ! Dry-Bulb Temperature Range Modifier Type
  ,                                       ! Dry-Bulb Temperature Range Modifier Schedule Name
  ASHRAETau,                              ! Solar Model Indicator
  ,                                       ! Beam Solar Day Schedule Name
  ,                                       ! Diffuse Solar Day Schedule Name
  0.444,                                  ! ASHRAE Taub {dimensionless}
  2.09;                                   ! ASHRAE Taud {dimensionless}

OS:ComponentData,
  {26fa01eb-b554-44df-a9e3-cba2b300e420}, ! Handle
  Component Data 1,                       ! Name
  {53bd1fa0-bc9d-43cf-b729-b3c0531f90d1}, ! UUID
  {d245664e-f2f6-41ac-af4f-202bb7758bc8}, ! Version UUID
  1366307194,                             ! Creation Timestamp
  1366307194,                             ! Version Timestamp
  {23d80fab-69ae-4ce8-96cd-6bdf43104698}; ! Name of Object 1

