
OS:Version,
  {e9790d83-6838-4640-a36a-6d655b3401b8}, ! Handle
  0.9.3;                                  ! Version Identifier

OS:SizingPeriod:DesignDay,
  {7035a1b4-e353-41cf-9aa5-79c7664588d4}, ! Handle
  Chanute Martin Johnson Ap Ann Clg 1% Condns WB=>MDB, ! Name
  32.2,                                   ! Maximum Dry-Bulb Temperature {C}
  11.4,                                   ! Daily Dry-Bulb Temperature Range {deltaC}
  25.4,                                   ! Humidity Indicating Conditions at Maximum Dry-Bulb {BasedOnField A3}
  97796,                                  ! Barometric Pressure {Pa}
  5.5,                                    ! Wind Speed {m/s}
  190,                                    ! Wind Direction {deg}
  0,                                      ! Sky Clearness
  0,                                      ! Rain Indicator
  0,                                      ! Snow Indicator
  21,                                     ! Day of Month
  7,                                      ! Month
  SummerDesignDay,                        ! Day Type
  0,                                      ! Daylight Saving Time Indicator
  Wetbulb,                                ! Humidity Indicating Type
  ,                                       ! Humidity Indicating Day Schedule Name
  DefaultMultipliers,                     ! Dry-Bulb Temperature Range Modifier Type
  ,                                       ! Dry-Bulb Temperature Range Modifier Schedule Name
  ASHRAETau,                              ! Solar Model Indicator
  ,                                       ! Beam Solar Day Schedule Name
  ,                                       ! Diffuse Solar Day Schedule Name
  0.434,                                  ! ASHRAE Taub {dimensionless}
  2.169;                                  ! ASHRAE Taud {dimensionless}

OS:ComponentData,
  {f9c3da9e-968f-44df-b7b2-1c69e8bed1d9}, ! Handle
  Component Data 1,                       ! Name
  {4a268f07-c7c1-45c1-b660-36cb6a7008ba}, ! UUID
  {e932986b-6df3-48f6-b6d8-ce9116c80349}, ! Version UUID
  1366307497,                             ! Creation Timestamp
  1366307497,                             ! Version Timestamp
  {7035a1b4-e353-41cf-9aa5-79c7664588d4}; ! Name of Object 1

