
OS:Version,
  {a3d00048-3341-4279-b899-ca9bb218081d}, ! Handle
  0.9.3;                                  ! Version Identifier

OS:SizingPeriod:DesignDay,
  {2b377d80-cb3a-4450-8bff-c83ca09b442f}, ! Handle
  Eagle County Ap Ann Clg .4% Condns Enth=>MDB, ! Name
  25.5,                                   ! Maximum Dry-Bulb Temperature {C}
  19,                                     ! Daily Dry-Bulb Temperature Range {deltaC}
  53000,                                  ! Humidity Indicating Conditions at Maximum Dry-Bulb {BasedOnField A3}
  79693,                                  ! Barometric Pressure {Pa}
  4.9,                                    ! Wind Speed {m/s}
  240,                                    ! Wind Direction {deg}
  0,                                      ! Sky Clearness
  0,                                      ! Rain Indicator
  0,                                      ! Snow Indicator
  21,                                     ! Day of Month
  7,                                      ! Month
  SummerDesignDay,                        ! Day Type
  0,                                      ! Daylight Saving Time Indicator
  Enthalpy,                               ! Humidity Indicating Type
  ,                                       ! Humidity Indicating Day Schedule Name
  DefaultMultipliers,                     ! Dry-Bulb Temperature Range Modifier Type
  ,                                       ! Dry-Bulb Temperature Range Modifier Schedule Name
  ASHRAETau,                              ! Solar Model Indicator
  ,                                       ! Beam Solar Day Schedule Name
  ,                                       ! Diffuse Solar Day Schedule Name
  0.4,                                    ! ASHRAE Taub {dimensionless}
  2.165;                                  ! ASHRAE Taud {dimensionless}

OS:ComponentData,
  {b4e61848-85be-41c9-84b4-b2e19bfb0898}, ! Handle
  Component Data 1,                       ! Name
  {be8c576e-5178-4ac8-bbc6-7467c633e22a}, ! UUID
  {e3a287aa-9cbf-4b08-83d0-48c1aa005a0f}, ! Version UUID
  1366306689,                             ! Creation Timestamp
  1366306689,                             ! Version Timestamp
  {2b377d80-cb3a-4450-8bff-c83ca09b442f}; ! Name of Object 1

