
OS:Version,
  {5112a6f4-4768-428b-a3cc-177531854f48}, ! Handle
  0.9.3;                                  ! Version Identifier

OS:SizingPeriod:DesignDay,
  {89741f47-930b-4baf-b205-e1e5ac1b4a47}, ! Handle
  Harrison Marion Rgn Ann Clg .4% Condns Enth=>MDB, ! Name
  29,                                     ! Maximum Dry-Bulb Temperature {C}
  10.1,                                   ! Daily Dry-Bulb Temperature Range {deltaC}
  74200,                                  ! Humidity Indicating Conditions at Maximum Dry-Bulb {BasedOnField A3}
  96842,                                  ! Barometric Pressure {Pa}
  3.3,                                    ! Wind Speed {m/s}
  220,                                    ! Wind Direction {deg}
  0,                                      ! Sky Clearness
  0,                                      ! Rain Indicator
  0,                                      ! Snow Indicator
  21,                                     ! Day of Month
  7,                                      ! Month
  SummerDesignDay,                        ! Day Type
  0,                                      ! Daylight Saving Time Indicator
  Enthalpy,                               ! Humidity Indicating Type
  ,                                       ! Humidity Indicating Day Schedule Name
  DefaultMultipliers,                     ! Dry-Bulb Temperature Range Modifier Type
  ,                                       ! Dry-Bulb Temperature Range Modifier Schedule Name
  ASHRAETau,                              ! Solar Model Indicator
  ,                                       ! Beam Solar Day Schedule Name
  ,                                       ! Diffuse Solar Day Schedule Name
  0.499,                                  ! ASHRAE Taub {dimensionless}
  1.888;                                  ! ASHRAE Taud {dimensionless}

OS:ComponentData,
  {cd60ec46-271c-4b27-8b8a-6ecba97ea82c}, ! Handle
  Component Data 1,                       ! Name
  {bef25cb8-0fb3-4a82-86d3-edc2441358b8}, ! UUID
  {a61fd176-4c61-4ff7-ab2a-15db0281c4ca}, ! Version UUID
  1366311637,                             ! Creation Timestamp
  1366311637,                             ! Version Timestamp
  {89741f47-930b-4baf-b205-e1e5ac1b4a47}; ! Name of Object 1

