
OS:Version,
  {68371a09-582d-423d-a522-06e18ba79d52}, ! Handle
  0.9.3;                                  ! Version Identifier

OS:SizingPeriod:DesignDay,
  {c04f860a-cefe-4e7f-8ccd-eb0c8e64f88d}, ! Handle
  Fulton Co Arpt Brow Ann Htg 99% Condns DB, ! Name
  -3.9,                                   ! Maximum Dry-Bulb Temperature {C}
  0,                                      ! Daily Dry-Bulb Temperature Range {deltaC}
  -3.9,                                   ! Humidity Indicating Conditions at Maximum Dry-Bulb {BasedOnField A3}
  98205,                                  ! Barometric Pressure {Pa}
  3,                                      ! Wind Speed {m/s}
  330,                                    ! Wind Direction {deg}
  0,                                      ! Sky Clearness
  0,                                      ! Rain Indicator
  0,                                      ! Snow Indicator
  21,                                     ! Day of Month
  1,                                      ! Month
  WinterDesignDay,                        ! Day Type
  0,                                      ! Daylight Saving Time Indicator
  Wetbulb,                                ! Humidity Indicating Type
  ,                                       ! Humidity Indicating Day Schedule Name
  DefaultMultipliers,                     ! Dry-Bulb Temperature Range Modifier Type
  ,                                       ! Dry-Bulb Temperature Range Modifier Schedule Name
  ASHRAEClearSky;                         ! Solar Model Indicator

OS:ComponentData,
  {eaa02cdf-8cbb-4152-90e5-e75a38c21216}, ! Handle
  Component Data 1,                       ! Name
  {90d02569-87b7-4f53-b8aa-0a63a40c4504}, ! UUID
  {f3a27d5a-06b3-4526-8ccd-f6d83e86ccfa}, ! Version UUID
  1366307013,                             ! Creation Timestamp
  1366307013,                             ! Version Timestamp
  {c04f860a-cefe-4e7f-8ccd-eb0c8e64f88d}; ! Name of Object 1

