
OS:Version,
  {a85d5a04-5a19-46ef-a152-33668c563226}, ! Handle
  0.9.3;                                  ! Version Identifier

OS:SizingPeriod:DesignDay,
  {ca1f8e2f-c12b-48ed-ace6-ce9063a770fe}, ! Handle
  Kansas City IntL Arpt Ann Htg Wind 99% Condns WS=>MCDB, ! Name
  2.9,                                    ! Maximum Dry-Bulb Temperature {C}
  0,                                      ! Daily Dry-Bulb Temperature Range {deltaC}
  2.9,                                    ! Humidity Indicating Conditions at Maximum Dry-Bulb {BasedOnField A3}
  97796,                                  ! Barometric Pressure {Pa}
  11.8,                                   ! Wind Speed {m/s}
  340,                                    ! Wind Direction {deg}
  0,                                      ! Sky Clearness
  0,                                      ! Rain Indicator
  0,                                      ! Snow Indicator
  21,                                     ! Day of Month
  1,                                      ! Month
  WinterDesignDay,                        ! Day Type
  0,                                      ! Daylight Saving Time Indicator
  Wetbulb,                                ! Humidity Indicating Type
  ,                                       ! Humidity Indicating Day Schedule Name
  DefaultMultipliers,                     ! Dry-Bulb Temperature Range Modifier Type
  ,                                       ! Dry-Bulb Temperature Range Modifier Schedule Name
  ASHRAEClearSky;                         ! Solar Model Indicator

OS:ComponentData,
  {55cbe784-9001-4ac6-a3f4-81a5276151d0}, ! Handle
  Component Data 1,                       ! Name
  {442af6d5-2b26-4437-a733-b4f8f49acb0e}, ! UUID
  {8c026c0d-8019-4dc3-8137-ddcffdac28f0}, ! Version UUID
  1366308532,                             ! Creation Timestamp
  1366308532,                             ! Version Timestamp
  {ca1f8e2f-c12b-48ed-ace6-ce9063a770fe}; ! Name of Object 1

