
OS:Version,
  {a6c3178a-b7f4-4e93-889f-020645b01421}, ! Handle
  0.9.3;                                  ! Version Identifier

OS:SizingPeriod:DesignDay,
  {54bef49e-6351-4c10-ac5b-4ac3e821bac8}, ! Handle
  Greeley Weld  Awos Ann Clg .4% Condns DB=>MWB, ! Name
  35.2,                                   ! Maximum Dry-Bulb Temperature {C}
  17.5,                                   ! Daily Dry-Bulb Temperature Range {deltaC}
  16.8,                                   ! Humidity Indicating Conditions at Maximum Dry-Bulb {BasedOnField A3}
  85389,                                  ! Barometric Pressure {Pa}
  3.5,                                    ! Wind Speed {m/s}
  140,                                    ! Wind Direction {deg}
  0,                                      ! Sky Clearness
  0,                                      ! Rain Indicator
  0,                                      ! Snow Indicator
  21,                                     ! Day of Month
  7,                                      ! Month
  SummerDesignDay,                        ! Day Type
  0,                                      ! Daylight Saving Time Indicator
  Wetbulb,                                ! Humidity Indicating Type
  ,                                       ! Humidity Indicating Day Schedule Name
  DefaultMultipliers,                     ! Dry-Bulb Temperature Range Modifier Type
  ,                                       ! Dry-Bulb Temperature Range Modifier Schedule Name
  ASHRAETau,                              ! Solar Model Indicator
  ,                                       ! Beam Solar Day Schedule Name
  ,                                       ! Diffuse Solar Day Schedule Name
  0.429,                                  ! ASHRAE Taub {dimensionless}
  1.991;                                  ! ASHRAE Taud {dimensionless}

OS:ComponentData,
  {ffbff296-b040-4c33-bf32-bd01a548aa95}, ! Handle
  Component Data 1,                       ! Name
  {e8509142-e6c8-46ad-b114-968242f2f574}, ! UUID
  {6ff17644-e95e-4396-a0cd-90b56322e628}, ! Version UUID
  1366306705,                             ! Creation Timestamp
  1366306705,                             ! Version Timestamp
  {54bef49e-6351-4c10-ac5b-4ac3e821bac8}; ! Name of Object 1

