
OS:Version,
  {d9463e3b-965c-4229-a65d-24454ef2bb94}, ! Handle
  0.9.3;                                  ! Version Identifier

OS:SizingPeriod:DesignDay,
  {ca50f1b2-e5b3-4830-a39d-3efc203faf9e}, ! Handle
  LANSING Ann Clg .4% Condns Enth=>MDB,   ! Name
  29.8,                                   ! Maximum Dry-Bulb Temperature {C}
  12,                                     ! Daily Dry-Bulb Temperature Range {deltaC}
  75900,                                  ! Humidity Indicating Conditions at Maximum Dry-Bulb {BasedOnField A3}
  98287,                                  ! Barometric Pressure {Pa}
  5.6,                                    ! Wind Speed {m/s}
  240,                                    ! Wind Direction {deg}
  0,                                      ! Sky Clearness
  0,                                      ! Rain Indicator
  0,                                      ! Snow Indicator
  21,                                     ! Day of Month
  7,                                      ! Month
  SummerDesignDay,                        ! Day Type
  0,                                      ! Daylight Saving Time Indicator
  Enthalpy,                               ! Humidity Indicating Type
  ,                                       ! Humidity Indicating Day Schedule Name
  DefaultMultipliers,                     ! Dry-Bulb Temperature Range Modifier Type
  ,                                       ! Dry-Bulb Temperature Range Modifier Schedule Name
  ASHRAETau,                              ! Solar Model Indicator
  ,                                       ! Beam Solar Day Schedule Name
  ,                                       ! Diffuse Solar Day Schedule Name
  0.429,                                  ! ASHRAE Taub {dimensionless}
  2.133;                                  ! ASHRAE Taud {dimensionless}

OS:ComponentData,
  {9b6bbc4c-6909-4a12-8db3-0c3144c8635e}, ! Handle
  Component Data 1,                       ! Name
  {8308f13b-ee75-4d84-99ea-bc6d4972e42a}, ! UUID
  {b508a89e-b019-45a1-bf3b-fdb26d2603c8}, ! Version UUID
  1366308057,                             ! Creation Timestamp
  1366308057,                             ! Version Timestamp
  {ca50f1b2-e5b3-4830-a39d-3efc203faf9e}; ! Name of Object 1

