
OS:Version,
  {c448a444-5202-4a58-91c5-d2d95d991468}, ! Handle
  0.9.3;                                  ! Version Identifier

OS:SizingPeriod:DesignDay,
  {16a4d7b5-58ab-41b6-8b5d-ad440fcea9f2}, ! Handle
  Greeley Weld  Awos Ann Clg 2% Condns Enth=>MDB, ! Name
  28.3,                                   ! Maximum Dry-Bulb Temperature {C}
  17.5,                                   ! Daily Dry-Bulb Temperature Range {deltaC}
  56600,                                  ! Humidity Indicating Conditions at Maximum Dry-Bulb {BasedOnField A3}
  85389,                                  ! Barometric Pressure {Pa}
  3.5,                                    ! Wind Speed {m/s}
  140,                                    ! Wind Direction {deg}
  0,                                      ! Sky Clearness
  0,                                      ! Rain Indicator
  0,                                      ! Snow Indicator
  21,                                     ! Day of Month
  7,                                      ! Month
  SummerDesignDay,                        ! Day Type
  0,                                      ! Daylight Saving Time Indicator
  Enthalpy,                               ! Humidity Indicating Type
  ,                                       ! Humidity Indicating Day Schedule Name
  DefaultMultipliers,                     ! Dry-Bulb Temperature Range Modifier Type
  ,                                       ! Dry-Bulb Temperature Range Modifier Schedule Name
  ASHRAETau,                              ! Solar Model Indicator
  ,                                       ! Beam Solar Day Schedule Name
  ,                                       ! Diffuse Solar Day Schedule Name
  0.429,                                  ! ASHRAE Taub {dimensionless}
  1.991;                                  ! ASHRAE Taud {dimensionless}

OS:ComponentData,
  {e02ce0e2-ccee-4169-a514-c0e55cd1b024}, ! Handle
  Component Data 1,                       ! Name
  {c17f1e37-b75e-458a-bb79-fe2c5b9bbba0}, ! UUID
  {e8b4e6c9-e024-420f-94c4-fdc30a6678b5}, ! Version UUID
  1366306706,                             ! Creation Timestamp
  1366306706,                             ! Version Timestamp
  {16a4d7b5-58ab-41b6-8b5d-ad440fcea9f2}; ! Name of Object 1

