
OS:Version,
  {4085df37-2ff7-4e29-8903-98e9ce8df60e}, ! Handle
  0.9.3;                                  ! Version Identifier

OS:SizingPeriod:DesignDay,
  {32559034-5630-477f-9a8a-bc198477bbc1}, ! Handle
  Dinwiddie Co Ann Hum_n 99% Condns DP=>MCDB, ! Name
  -2.8,                                   ! Maximum Dry-Bulb Temperature {C}
  0,                                      ! Daily Dry-Bulb Temperature Range {deltaC}
  -12.9,                                  ! Humidity Indicating Conditions at Maximum Dry-Bulb {BasedOnField A3}
  100606,                                 ! Barometric Pressure {Pa}
  1.1,                                    ! Wind Speed {m/s}
  270,                                    ! Wind Direction {deg}
  0,                                      ! Sky Clearness
  0,                                      ! Rain Indicator
  0,                                      ! Snow Indicator
  21,                                     ! Day of Month
  1,                                      ! Month
  WinterDesignDay,                        ! Day Type
  0,                                      ! Daylight Saving Time Indicator
  Dewpoint,                               ! Humidity Indicating Type
  ,                                       ! Humidity Indicating Day Schedule Name
  DefaultMultipliers,                     ! Dry-Bulb Temperature Range Modifier Type
  ,                                       ! Dry-Bulb Temperature Range Modifier Schedule Name
  ASHRAEClearSky;                         ! Solar Model Indicator

OS:ComponentData,
  {7643d836-e5fc-41e4-80b1-8a380d2217f2}, ! Handle
  Component Data 1,                       ! Name
  {fb8901d7-d217-4ce1-a99d-b60abf0ac508}, ! UUID
  {52f9e7e0-c040-47b3-a12b-e025312dea31}, ! Version UUID
  1366311150,                             ! Creation Timestamp
  1366311150,                             ! Version Timestamp
  {32559034-5630-477f-9a8a-bc198477bbc1}; ! Name of Object 1

