
OS:Version,
  {ae034c78-033f-4b52-a4b1-157fac2cab8b}, ! Handle
  0.9.3;                                  ! Version Identifier

OS:SizingPeriod:DesignDay,
  {f1173922-6298-42e6-8204-784ac08824c8}, ! Handle
  Key West Intl Arpt Ann Htg 99.6% Condns DB, ! Name
  12.7,                                   ! Maximum Dry-Bulb Temperature {C}
  0,                                      ! Daily Dry-Bulb Temperature Range {deltaC}
  12.7,                                   ! Humidity Indicating Conditions at Maximum Dry-Bulb {BasedOnField A3}
  101313,                                 ! Barometric Pressure {Pa}
  4.6,                                    ! Wind Speed {m/s}
  20,                                     ! Wind Direction {deg}
  0,                                      ! Sky Clearness
  0,                                      ! Rain Indicator
  0,                                      ! Snow Indicator
  21,                                     ! Day of Month
  1,                                      ! Month
  WinterDesignDay,                        ! Day Type
  0,                                      ! Daylight Saving Time Indicator
  Wetbulb,                                ! Humidity Indicating Type
  ,                                       ! Humidity Indicating Day Schedule Name
  DefaultMultipliers,                     ! Dry-Bulb Temperature Range Modifier Type
  ,                                       ! Dry-Bulb Temperature Range Modifier Schedule Name
  ASHRAEClearSky;                         ! Solar Model Indicator

OS:ComponentData,
  {6578a92e-de95-4567-a30e-181b07de8ebf}, ! Handle
  Component Data 1,                       ! Name
  {a18a7f86-2064-47e0-b7da-8774526ee01c}, ! UUID
  {ddba5689-37af-4421-ae23-e21281b2c361}, ! Version UUID
  1366306835,                             ! Creation Timestamp
  1366306835,                             ! Version Timestamp
  {f1173922-6298-42e6-8204-784ac08824c8}; ! Name of Object 1

