
OS:Version,
  {0bf9b7e9-aa4b-46e0-94c9-5a03327e34d0}, ! Handle
  0.9.3;                                  ! Version Identifier

OS:SizingPeriod:DesignDay,
  {699e8554-e14f-418c-a2b5-947d4ee1fbf0}, ! Handle
  Boston Ann Clg .4% Condns WB=>MDB,      ! Name
  30.2,                                   ! Maximum Dry-Bulb Temperature {C}
  8.4,                                    ! Daily Dry-Bulb Temperature Range {deltaC}
  24.6,                                   ! Humidity Indicating Conditions at Maximum Dry-Bulb {BasedOnField A3}
  101253,                                 ! Barometric Pressure {Pa}
  6.3,                                    ! Wind Speed {m/s}
  270,                                    ! Wind Direction {deg}
  0,                                      ! Sky Clearness
  0,                                      ! Rain Indicator
  0,                                      ! Snow Indicator
  21,                                     ! Day of Month
  7,                                      ! Month
  SummerDesignDay,                        ! Day Type
  0,                                      ! Daylight Saving Time Indicator
  Wetbulb,                                ! Humidity Indicating Type
  ,                                       ! Humidity Indicating Day Schedule Name
  DefaultMultipliers,                     ! Dry-Bulb Temperature Range Modifier Type
  ,                                       ! Dry-Bulb Temperature Range Modifier Schedule Name
  ASHRAETau,                              ! Solar Model Indicator
  ,                                       ! Beam Solar Day Schedule Name
  ,                                       ! Diffuse Solar Day Schedule Name
  0.488,                                  ! ASHRAE Taub {dimensionless}
  1.95;                                   ! ASHRAE Taud {dimensionless}

OS:ComponentData,
  {e415d7e0-2c7e-4d9d-beab-b3d43b87263c}, ! Handle
  Component Data 1,                       ! Name
  {5d80725a-82a9-477e-a408-c20c517d8aed}, ! UUID
  {5d8d8986-50c2-4d8b-84a1-40a693a85cf7}, ! Version UUID
  1366307789,                             ! Creation Timestamp
  1366307789,                             ! Version Timestamp
  {699e8554-e14f-418c-a2b5-947d4ee1fbf0}; ! Name of Object 1

