
OS:Version,
  {cdb979cc-95eb-41f1-ba9d-9b9da357c8d3}, ! Handle
  0.9.3;                                  ! Version Identifier

OS:SizingPeriod:DesignDay,
  {48cbc776-1474-41ea-8c4b-7e906d16fc27}, ! Handle
  Kona Intl At Keahol Ann Clg 1% Condns Enth=>MDB, ! Name
  29,                                     ! Maximum Dry-Bulb Temperature {C}
  5.8,                                    ! Daily Dry-Bulb Temperature Range {deltaC}
  75300,                                  ! Humidity Indicating Conditions at Maximum Dry-Bulb {BasedOnField A3}
  101145,                                 ! Barometric Pressure {Pa}
  5.7,                                    ! Wind Speed {m/s}
  210,                                    ! Wind Direction {deg}
  0,                                      ! Sky Clearness
  0,                                      ! Rain Indicator
  0,                                      ! Snow Indicator
  21,                                     ! Day of Month
  8,                                      ! Month
  SummerDesignDay,                        ! Day Type
  0,                                      ! Daylight Saving Time Indicator
  Enthalpy,                               ! Humidity Indicating Type
  ,                                       ! Humidity Indicating Day Schedule Name
  DefaultMultipliers,                     ! Dry-Bulb Temperature Range Modifier Type
  ,                                       ! Dry-Bulb Temperature Range Modifier Schedule Name
  ASHRAETau,                              ! Solar Model Indicator
  ,                                       ! Beam Solar Day Schedule Name
  ,                                       ! Diffuse Solar Day Schedule Name
  0.404,                                  ! ASHRAE Taub {dimensionless}
  2.462;                                  ! ASHRAE Taud {dimensionless}

OS:ComponentData,
  {ed67ef90-e834-4a6f-af14-aa3472ee6d80}, ! Handle
  Component Data 1,                       ! Name
  {bef4ce66-a638-45e1-9298-f58c30396ae0}, ! UUID
  {15662ed8-3d1e-489b-9cc1-cab826afaf47}, ! Version UUID
  1366307109,                             ! Creation Timestamp
  1366307109,                             ! Version Timestamp
  {48cbc776-1474-41ea-8c4b-7e906d16fc27}; ! Name of Object 1

