
OS:Version,
  {4cd4e0b1-8fed-4717-8179-0c046531eeea}, ! Handle
  0.9.3;                                  ! Version Identifier

OS:SizingPeriod:DesignDay,
  {6cfd6331-6471-41ec-b4b1-d9fd6edf1829}, ! Handle
  ATLANTA Ann Clg 1% Condns Enth=>MDB,    ! Name
  30.4,                                   ! Maximum Dry-Bulb Temperature {C}
  9.5,                                    ! Daily Dry-Bulb Temperature Range {deltaC}
  75600,                                  ! Humidity Indicating Conditions at Maximum Dry-Bulb {BasedOnField A3}
  97598,                                  ! Barometric Pressure {Pa}
  4,                                      ! Wind Speed {m/s}
  300,                                    ! Wind Direction {deg}
  0,                                      ! Sky Clearness
  0,                                      ! Rain Indicator
  0,                                      ! Snow Indicator
  21,                                     ! Day of Month
  7,                                      ! Month
  SummerDesignDay,                        ! Day Type
  0,                                      ! Daylight Saving Time Indicator
  Enthalpy,                               ! Humidity Indicating Type
  ,                                       ! Humidity Indicating Day Schedule Name
  DefaultMultipliers,                     ! Dry-Bulb Temperature Range Modifier Type
  ,                                       ! Dry-Bulb Temperature Range Modifier Schedule Name
  ASHRAETau,                              ! Solar Model Indicator
  ,                                       ! Beam Solar Day Schedule Name
  ,                                       ! Diffuse Solar Day Schedule Name
  0.556,                                  ! ASHRAE Taub {dimensionless}
  1.779;                                  ! ASHRAE Taud {dimensionless}

OS:ComponentData,
  {644bae07-538a-452d-8a41-9bb34f0b0788}, ! Handle
  Component Data 1,                       ! Name
  {8d3f20f2-fc7e-4ab3-9050-58b58f3b500d}, ! UUID
  {6ebb679a-8f03-488f-bdbe-c3ad63bbc637}, ! Version UUID
  1366306982,                             ! Creation Timestamp
  1366306982,                             ! Version Timestamp
  {6cfd6331-6471-41ec-b4b1-d9fd6edf1829}; ! Name of Object 1

