
OS:Version,
  {4a6acc0b-35eb-4c81-a160-63a2138408fc}, ! Handle
  0.9.3;                                  ! Version Identifier

OS:SizingPeriod:DesignDay,
  {c2d8c7a2-ad47-4896-a92e-21732429b5f7}, ! Handle
  LIHUE Ann Htg 99.6% Condns DB,          ! Name
  15.7,                                   ! Maximum Dry-Bulb Temperature {C}
  0,                                      ! Daily Dry-Bulb Temperature Range {deltaC}
  15.7,                                   ! Humidity Indicating Conditions at Maximum Dry-Bulb {BasedOnField A3}
  100786,                                 ! Barometric Pressure {Pa}
  3.5,                                    ! Wind Speed {m/s}
  280,                                    ! Wind Direction {deg}
  0,                                      ! Sky Clearness
  0,                                      ! Rain Indicator
  0,                                      ! Snow Indicator
  21,                                     ! Day of Month
  2,                                      ! Month
  WinterDesignDay,                        ! Day Type
  0,                                      ! Daylight Saving Time Indicator
  Wetbulb,                                ! Humidity Indicating Type
  ,                                       ! Humidity Indicating Day Schedule Name
  DefaultMultipliers,                     ! Dry-Bulb Temperature Range Modifier Type
  ,                                       ! Dry-Bulb Temperature Range Modifier Schedule Name
  ASHRAEClearSky;                         ! Solar Model Indicator

OS:ComponentData,
  {c2400035-fcab-49e3-bb25-783947639a2a}, ! Handle
  Component Data 1,                       ! Name
  {b72fef2d-1c1b-4a25-9582-147727179754}, ! UUID
  {b74c2312-b520-4d0f-9ec0-118b92946486}, ! Version UUID
  1366307113,                             ! Creation Timestamp
  1366307113,                             ! Version Timestamp
  {c2d8c7a2-ad47-4896-a92e-21732429b5f7}; ! Name of Object 1

