
OS:Version,
  {ecd693c6-96e5-4e46-976e-5e4f4db665e1}, ! Handle
  0.9.3;                                  ! Version Identifier

OS:SizingPeriod:DesignDay,
  {ff70457f-fdda-44c9-ab4c-39ee633c6613}, ! Handle
  Boone Muni Ann Clg 1% Condns WB=>MDB,   ! Name
  30,                                     ! Maximum Dry-Bulb Temperature {C}
  10.2,                                   ! Daily Dry-Bulb Temperature Range {deltaC}
  26,                                     ! Humidity Indicating Conditions at Maximum Dry-Bulb {BasedOnField A3}
  97144,                                  ! Barometric Pressure {Pa}
  4.5,                                    ! Wind Speed {m/s}
  190,                                    ! Wind Direction {deg}
  0,                                      ! Sky Clearness
  0,                                      ! Rain Indicator
  0,                                      ! Snow Indicator
  21,                                     ! Day of Month
  7,                                      ! Month
  SummerDesignDay,                        ! Day Type
  0,                                      ! Daylight Saving Time Indicator
  Wetbulb,                                ! Humidity Indicating Type
  ,                                       ! Humidity Indicating Day Schedule Name
  DefaultMultipliers,                     ! Dry-Bulb Temperature Range Modifier Type
  ,                                       ! Dry-Bulb Temperature Range Modifier Schedule Name
  ASHRAETau,                              ! Solar Model Indicator
  ,                                       ! Beam Solar Day Schedule Name
  ,                                       ! Diffuse Solar Day Schedule Name
  0.415,                                  ! ASHRAE Taub {dimensionless}
  2.199;                                  ! ASHRAE Taud {dimensionless}

OS:ComponentData,
  {02606ba8-77fa-4b2a-8d57-7f12623871ff}, ! Handle
  Component Data 1,                       ! Name
  {35e58663-43b7-4daf-8893-b6d4044bfec9}, ! UUID
  {a5aed6a4-7c6d-4d66-8289-20ce8236a962}, ! Version UUID
  1366307137,                             ! Creation Timestamp
  1366307137,                             ! Version Timestamp
  {ff70457f-fdda-44c9-ab4c-39ee633c6613}; ! Name of Object 1

