
OS:Version,
  {eadae9b7-4764-458f-bb79-c3db0be0d033}, ! Handle
  0.9.3;                                  ! Version Identifier

OS:SizingPeriod:DesignDay,
  {d3d968bd-2e50-4726-ac97-0a91d069bfc1}, ! Handle
  CEDAR_CITY Ann Clg 1% Condns DP=>MDB,   ! Name
  20,                                     ! Maximum Dry-Bulb Temperature {C}
  16.7,                                   ! Daily Dry-Bulb Temperature Range {deltaC}
  13.7,                                   ! Humidity Indicating Conditions at Maximum Dry-Bulb {BasedOnField A3}
  82379,                                  ! Barometric Pressure {Pa}
  5,                                      ! Wind Speed {m/s}
  210,                                    ! Wind Direction {deg}
  0,                                      ! Sky Clearness
  0,                                      ! Rain Indicator
  0,                                      ! Snow Indicator
  21,                                     ! Day of Month
  7,                                      ! Month
  SummerDesignDay,                        ! Day Type
  0,                                      ! Daylight Saving Time Indicator
  Dewpoint,                               ! Humidity Indicating Type
  ,                                       ! Humidity Indicating Day Schedule Name
  DefaultMultipliers,                     ! Dry-Bulb Temperature Range Modifier Type
  ,                                       ! Dry-Bulb Temperature Range Modifier Schedule Name
  ASHRAETau,                              ! Solar Model Indicator
  ,                                       ! Beam Solar Day Schedule Name
  ,                                       ! Diffuse Solar Day Schedule Name
  0.415,                                  ! ASHRAE Taub {dimensionless}
  2.019;                                  ! ASHRAE Taud {dimensionless}

OS:ComponentData,
  {94982979-a1b6-4b08-a23d-20e334da7adb}, ! Handle
  Component Data 1,                       ! Name
  {fede1838-5568-47f4-a45c-6b24731c0d24}, ! UUID
  {a03a1bc3-2590-46da-9a95-ef8a906cafb1}, ! Version UUID
  1366310950,                             ! Creation Timestamp
  1366310950,                             ! Version Timestamp
  {d3d968bd-2e50-4726-ac97-0a91d069bfc1}; ! Name of Object 1

