
OS:Version,
  {cfe48470-61d6-4060-be4e-a3b817e83ff5}, ! Handle
  0.9.3;                                  ! Version Identifier

OS:SizingPeriod:DesignDay,
  {f63a87af-43e2-438c-81f4-8a3a696273b0}, ! Handle
  Eau Claire County Ap Ann Htg Wind 99.6% Condns WS=>MCDB, ! Name
  -6.1,                                   ! Maximum Dry-Bulb Temperature {C}
  0,                                      ! Daily Dry-Bulb Temperature Range {deltaC}
  -6.1,                                   ! Humidity Indicating Conditions at Maximum Dry-Bulb {BasedOnField A3}
  98112,                                  ! Barometric Pressure {Pa}
  9.3,                                    ! Wind Speed {m/s}
  250,                                    ! Wind Direction {deg}
  0,                                      ! Sky Clearness
  0,                                      ! Rain Indicator
  0,                                      ! Snow Indicator
  21,                                     ! Day of Month
  1,                                      ! Month
  WinterDesignDay,                        ! Day Type
  0,                                      ! Daylight Saving Time Indicator
  Wetbulb,                                ! Humidity Indicating Type
  ,                                       ! Humidity Indicating Day Schedule Name
  DefaultMultipliers,                     ! Dry-Bulb Temperature Range Modifier Type
  ,                                       ! Dry-Bulb Temperature Range Modifier Schedule Name
  ASHRAEClearSky;                         ! Solar Model Indicator

OS:ComponentData,
  {23afdad3-b6cf-4429-8f84-f02d7a502e33}, ! Handle
  Component Data 1,                       ! Name
  {f27b73fa-3246-45cd-b618-e994189a2ab3}, ! UUID
  {5e879540-6839-414f-a156-38092a5d5cc1}, ! Version UUID
  1366311473,                             ! Creation Timestamp
  1366311473,                             ! Version Timestamp
  {f63a87af-43e2-438c-81f4-8a3a696273b0}; ! Name of Object 1

