
OS:Version,
  {4ae33fe1-46a2-49a1-bf5f-c39e064f57e7}, ! Handle
  0.9.3;                                  ! Version Identifier

OS:SizingPeriod:DesignDay,
  {6f560982-9722-4ef1-8ca2-7c554181c465}, ! Handle
  Golden Tri Awos Ann Htg 99% Condns DB,  ! Name
  -4,                                     ! Maximum Dry-Bulb Temperature {C}
  0,                                      ! Daily Dry-Bulb Temperature Range {deltaC}
  -4,                                     ! Humidity Indicating Conditions at Maximum Dry-Bulb {BasedOnField A3}
  100368,                                 ! Barometric Pressure {Pa}
  2.1,                                    ! Wind Speed {m/s}
  350,                                    ! Wind Direction {deg}
  0,                                      ! Sky Clearness
  0,                                      ! Rain Indicator
  0,                                      ! Snow Indicator
  21,                                     ! Day of Month
  1,                                      ! Month
  WinterDesignDay,                        ! Day Type
  0,                                      ! Daylight Saving Time Indicator
  Wetbulb,                                ! Humidity Indicating Type
  ,                                       ! Humidity Indicating Day Schedule Name
  DefaultMultipliers,                     ! Dry-Bulb Temperature Range Modifier Type
  ,                                       ! Dry-Bulb Temperature Range Modifier Schedule Name
  ASHRAEClearSky;                         ! Solar Model Indicator

OS:ComponentData,
  {850efd26-acf0-4cf4-a6f1-22f1f03e33f9}, ! Handle
  Component Data 1,                       ! Name
  {574d2487-57e3-421b-b1a5-0b54559df1d4}, ! UUID
  {22d1e58e-658a-42a4-9506-a133ceaf39df}, ! Version UUID
  1366308617,                             ! Creation Timestamp
  1366308617,                             ! Version Timestamp
  {6f560982-9722-4ef1-8ca2-7c554181c465}; ! Name of Object 1

