
OS:Version,
  {8b838913-4706-460c-89ad-e8e04d2c4a99}, ! Handle
  0.9.3;                                  ! Version Identifier

OS:SizingPeriod:DesignDay,
  {aefeb213-9881-4b90-b9f4-1ab7378a8b57}, ! Handle
  Idaho Falls Fanning Field Ann Hum_n 99% Condns DP=>MCDB, ! Name
  -19,                                    ! Maximum Dry-Bulb Temperature {C}
  0,                                      ! Daily Dry-Bulb Temperature Range {deltaC}
  -22.4,                                  ! Humidity Indicating Conditions at Maximum Dry-Bulb {BasedOnField A3}
  85170,                                  ! Barometric Pressure {Pa}
  3,                                      ! Wind Speed {m/s}
  0,                                      ! Wind Direction {deg}
  0,                                      ! Sky Clearness
  0,                                      ! Rain Indicator
  0,                                      ! Snow Indicator
  21,                                     ! Day of Month
  1,                                      ! Month
  WinterDesignDay,                        ! Day Type
  0,                                      ! Daylight Saving Time Indicator
  Dewpoint,                               ! Humidity Indicating Type
  ,                                       ! Humidity Indicating Day Schedule Name
  DefaultMultipliers,                     ! Dry-Bulb Temperature Range Modifier Type
  ,                                       ! Dry-Bulb Temperature Range Modifier Schedule Name
  ASHRAEClearSky;                         ! Solar Model Indicator

OS:ComponentData,
  {fc452193-fa57-4d50-b9e6-a595ec10e04c}, ! Handle
  Component Data 1,                       ! Name
  {6bd3b5af-bcc0-4968-a602-ce5e1656f117}, ! UUID
  {892d1602-6c98-48e8-a2e4-e2159fdd4099}, ! Version UUID
  1366307285,                             ! Creation Timestamp
  1366307285,                             ! Version Timestamp
  {aefeb213-9881-4b90-b9f4-1ab7378a8b57}; ! Name of Object 1

