
OS:Version,
  {ae5050c9-4e7f-420a-9c10-b2bd4a361f34}, ! Handle
  0.9.3;                                  ! Version Identifier

OS:SizingPeriod:DesignDay,
  {88bd4cf0-997f-42ec-a556-2be9d6e8176a}, ! Handle
  Eagle Ann Clg .4% Condns DB=>MWB,       ! Name
  31.2,                                   ! Maximum Dry-Bulb Temperature {C}
  19,                                     ! Daily Dry-Bulb Temperature Range {deltaC}
  14.2,                                   ! Humidity Indicating Conditions at Maximum Dry-Bulb {BasedOnField A3}
  79564,                                  ! Barometric Pressure {Pa}
  4.9,                                    ! Wind Speed {m/s}
  240,                                    ! Wind Direction {deg}
  0,                                      ! Sky Clearness
  0,                                      ! Rain Indicator
  0,                                      ! Snow Indicator
  21,                                     ! Day of Month
  7,                                      ! Month
  SummerDesignDay,                        ! Day Type
  0,                                      ! Daylight Saving Time Indicator
  Wetbulb,                                ! Humidity Indicating Type
  ,                                       ! Humidity Indicating Day Schedule Name
  DefaultMultipliers,                     ! Dry-Bulb Temperature Range Modifier Type
  ,                                       ! Dry-Bulb Temperature Range Modifier Schedule Name
  ASHRAETau,                              ! Solar Model Indicator
  ,                                       ! Beam Solar Day Schedule Name
  ,                                       ! Diffuse Solar Day Schedule Name
  0.4,                                    ! ASHRAE Taub {dimensionless}
  2.165;                                  ! ASHRAE Taud {dimensionless}

OS:ComponentData,
  {d15562fd-b18f-4852-98e2-24ee9d138dc3}, ! Handle
  Component Data 1,                       ! Name
  {457184ed-9baf-442f-9d4a-554f463db77b}, ! UUID
  {44b1030f-1852-4c67-8761-c06c82952b73}, ! Version UUID
  1366306685,                             ! Creation Timestamp
  1366306685,                             ! Version Timestamp
  {88bd4cf0-997f-42ec-a556-2be9d6e8176a}; ! Name of Object 1

