
OS:Version,
  {9b5eba91-80ed-480d-805e-3d3e31a436bf}, ! Handle
  0.9.3;                                  ! Version Identifier

OS:SizingPeriod:DesignDay,
  {63a1f3ec-3117-4700-bb81-3212f881a332}, ! Handle
  GREENVILLE Ann Clg 1% Condns Enth=>MDB, ! Name
  30.5,                                   ! Maximum Dry-Bulb Temperature {C}
  10.6,                                   ! Daily Dry-Bulb Temperature Range {deltaC}
  75100,                                  ! Humidity Indicating Conditions at Maximum Dry-Bulb {BasedOnField A3}
  97819,                                  ! Barometric Pressure {Pa}
  3.6,                                    ! Wind Speed {m/s}
  230,                                    ! Wind Direction {deg}
  0,                                      ! Sky Clearness
  0,                                      ! Rain Indicator
  0,                                      ! Snow Indicator
  21,                                     ! Day of Month
  7,                                      ! Month
  SummerDesignDay,                        ! Day Type
  0,                                      ! Daylight Saving Time Indicator
  Enthalpy,                               ! Humidity Indicating Type
  ,                                       ! Humidity Indicating Day Schedule Name
  DefaultMultipliers,                     ! Dry-Bulb Temperature Range Modifier Type
  ,                                       ! Dry-Bulb Temperature Range Modifier Schedule Name
  ASHRAETau,                              ! Solar Model Indicator
  ,                                       ! Beam Solar Day Schedule Name
  ,                                       ! Diffuse Solar Day Schedule Name
  0.545,                                  ! ASHRAE Taub {dimensionless}
  1.796;                                  ! ASHRAE Taud {dimensionless}

OS:ComponentData,
  {45440422-7ca2-42e5-8204-693c119cb92e}, ! Handle
  Component Data 1,                       ! Name
  {0c179844-6ca0-4f08-bee9-1f49b59f49f0}, ! UUID
  {87665acf-a4c4-4eea-a9f0-22f6a6dfc92f}, ! Version UUID
  1366310359,                             ! Creation Timestamp
  1366310359,                             ! Version Timestamp
  {63a1f3ec-3117-4700-bb81-3212f881a332}; ! Name of Object 1

