
OS:Version,
  {52af1931-e912-4d48-8f1a-3374b6c15426}, ! Handle
  0.9.3;                                  ! Version Identifier

OS:SizingPeriod:DesignDay,
  {b6656a4a-e088-4a14-a32b-43a51e15c006}, ! Handle
  Grissom Arb Ann Clg 1% Condns Enth=>MDB, ! Name
  30,                                     ! Maximum Dry-Bulb Temperature {C}
  10.2,                                   ! Daily Dry-Bulb Temperature Range {deltaC}
  78000,                                  ! Humidity Indicating Conditions at Maximum Dry-Bulb {BasedOnField A3}
  98322,                                  ! Barometric Pressure {Pa}
  3.9,                                    ! Wind Speed {m/s}
  220,                                    ! Wind Direction {deg}
  0,                                      ! Sky Clearness
  0,                                      ! Rain Indicator
  0,                                      ! Snow Indicator
  21,                                     ! Day of Month
  7,                                      ! Month
  SummerDesignDay,                        ! Day Type
  0,                                      ! Daylight Saving Time Indicator
  Enthalpy,                               ! Humidity Indicating Type
  ,                                       ! Humidity Indicating Day Schedule Name
  DefaultMultipliers,                     ! Dry-Bulb Temperature Range Modifier Type
  ,                                       ! Dry-Bulb Temperature Range Modifier Schedule Name
  ASHRAETau,                              ! Solar Model Indicator
  ,                                       ! Beam Solar Day Schedule Name
  ,                                       ! Diffuse Solar Day Schedule Name
  0.457,                                  ! ASHRAE Taub {dimensionless}
  2.034;                                  ! ASHRAE Taud {dimensionless}

OS:ComponentData,
  {2e020164-cc52-4000-9a7b-47e976444fee}, ! Handle
  Component Data 1,                       ! Name
  {5a84ac74-d016-42b0-b245-843ea24a139d}, ! UUID
  {7ad93702-e689-480a-9b33-f087c70e0446}, ! Version UUID
  1366307452,                             ! Creation Timestamp
  1366307452,                             ! Version Timestamp
  {b6656a4a-e088-4a14-a32b-43a51e15c006}; ! Name of Object 1

