
OS:Version,
  {3bec32d6-a050-495f-b0e7-b3d4eba9d21b}, ! Handle
  0.9.3;                                  ! Version Identifier

OS:SizingPeriod:DesignDay,
  {87b8bdbd-cc9a-4d61-bf54-7ec9f8dac6ce}, ! Handle
  Bakersfield Meadows Field Ann Clg 2% Condns Enth=>MDB, ! Name
  34.4,                                   ! Maximum Dry-Bulb Temperature {C}
  14.9,                                   ! Daily Dry-Bulb Temperature Range {deltaC}
  63300,                                  ! Humidity Indicating Conditions at Maximum Dry-Bulb {BasedOnField A3}
  99548,                                  ! Barometric Pressure {Pa}
  5.3,                                    ! Wind Speed {m/s}
  300,                                    ! Wind Direction {deg}
  0,                                      ! Sky Clearness
  0,                                      ! Rain Indicator
  0,                                      ! Snow Indicator
  21,                                     ! Day of Month
  7,                                      ! Month
  SummerDesignDay,                        ! Day Type
  0,                                      ! Daylight Saving Time Indicator
  Enthalpy,                               ! Humidity Indicating Type
  ,                                       ! Humidity Indicating Day Schedule Name
  DefaultMultipliers,                     ! Dry-Bulb Temperature Range Modifier Type
  ,                                       ! Dry-Bulb Temperature Range Modifier Schedule Name
  ASHRAETau,                              ! Solar Model Indicator
  ,                                       ! Beam Solar Day Schedule Name
  ,                                       ! Diffuse Solar Day Schedule Name
  0.438,                                  ! ASHRAE Taub {dimensionless}
  2.106;                                  ! ASHRAE Taud {dimensionless}

OS:ComponentData,
  {690e9ec9-6805-4c22-9ebd-b1e3f783c339}, ! Handle
  Component Data 1,                       ! Name
  {119a284b-a21d-4f4b-aa72-1d867e3324d6}, ! UUID
  {fb717a74-d893-4b2d-825b-c3c6854d9bcf}, ! Version UUID
  1366306366,                             ! Creation Timestamp
  1366306366,                             ! Version Timestamp
  {87b8bdbd-cc9a-4d61-bf54-7ec9f8dac6ce}; ! Name of Object 1

