
OS:Version,
  {f78c24a9-b05d-4efc-b4ff-c85e62314b43}, ! Handle
  0.9.3;                                  ! Version Identifier

OS:SizingPeriod:DesignDay,
  {f68f2c81-e4e9-4dec-9ec1-60f1f62361fb}, ! Handle
  Great Bend  Awos Ann Clg 2% Condns Enth=>MDB, ! Name
  31.4,                                   ! Maximum Dry-Bulb Temperature {C}
  13.2,                                   ! Daily Dry-Bulb Temperature Range {deltaC}
  70700,                                  ! Humidity Indicating Conditions at Maximum Dry-Bulb {BasedOnField A3}
  94605,                                  ! Barometric Pressure {Pa}
  7.4,                                    ! Wind Speed {m/s}
  190,                                    ! Wind Direction {deg}
  0,                                      ! Sky Clearness
  0,                                      ! Rain Indicator
  0,                                      ! Snow Indicator
  21,                                     ! Day of Month
  7,                                      ! Month
  SummerDesignDay,                        ! Day Type
  0,                                      ! Daylight Saving Time Indicator
  Enthalpy,                               ! Humidity Indicating Type
  ,                                       ! Humidity Indicating Day Schedule Name
  DefaultMultipliers,                     ! Dry-Bulb Temperature Range Modifier Type
  ,                                       ! Dry-Bulb Temperature Range Modifier Schedule Name
  ASHRAETau,                              ! Solar Model Indicator
  ,                                       ! Beam Solar Day Schedule Name
  ,                                       ! Diffuse Solar Day Schedule Name
  0.423,                                  ! ASHRAE Taub {dimensionless}
  2.152;                                  ! ASHRAE Taud {dimensionless}

OS:ComponentData,
  {182018af-1f29-4733-9096-d84f93ce7c17}, ! Handle
  Component Data 1,                       ! Name
  {4e0270bd-a0a6-47d5-a884-c36d1549c13a}, ! UUID
  {37dc96f4-50ed-40e6-9c8a-80f7d67f3e4f}, ! Version UUID
  1366307543,                             ! Creation Timestamp
  1366307543,                             ! Version Timestamp
  {f68f2c81-e4e9-4dec-9ec1-60f1f62361fb}; ! Name of Object 1

