
OS:Version,
  {09b0419d-d73c-44c2-bdeb-6a909052e4ed}, ! Handle
  0.9.3;                                  ! Version Identifier

OS:SizingPeriod:DesignDay,
  {694a5894-9b97-4b17-a17b-394f21b166ff}, ! Handle
  Cairns Field Fort Rucker Ann Htg Wind 99% Condns WS=>MCDB, ! Name
  10.7,                                   ! Maximum Dry-Bulb Temperature {C}
  0,                                      ! Daily Dry-Bulb Temperature Range {deltaC}
  10.7,                                   ! Humidity Indicating Conditions at Maximum Dry-Bulb {BasedOnField A3}
  100237,                                 ! Barometric Pressure {Pa}
  8.2,                                    ! Wind Speed {m/s}
  350,                                    ! Wind Direction {deg}
  0,                                      ! Sky Clearness
  0,                                      ! Rain Indicator
  0,                                      ! Snow Indicator
  21,                                     ! Day of Month
  1,                                      ! Month
  WinterDesignDay,                        ! Day Type
  0,                                      ! Daylight Saving Time Indicator
  Wetbulb,                                ! Humidity Indicating Type
  ,                                       ! Humidity Indicating Day Schedule Name
  DefaultMultipliers,                     ! Dry-Bulb Temperature Range Modifier Type
  ,                                       ! Dry-Bulb Temperature Range Modifier Schedule Name
  ASHRAEClearSky;                         ! Solar Model Indicator

OS:ComponentData,
  {a6981faa-8c76-46d9-98af-697171d8e82e}, ! Handle
  Component Data 1,                       ! Name
  {809d74d9-c5f3-47c5-b2c1-28d1ea6f7824}, ! UUID
  {13ff055c-773e-45a8-83b6-0291cfd1a643}, ! Version UUID
  1366305654,                             ! Creation Timestamp
  1366305654,                             ! Version Timestamp
  {694a5894-9b97-4b17-a17b-394f21b166ff}; ! Name of Object 1

