
OS:Version,
  {ba4fc386-1428-4da0-bccc-eff82c977656}, ! Handle
  0.9.3;                                  ! Version Identifier

OS:SizingPeriod:DesignDay,
  {096b424a-7e1f-48ae-bdf8-ffe6ba1b3251}, ! Handle
  Honolulu Ann Hum_n 99% Condns DP=>MCDB, ! Name
  21,                                     ! Maximum Dry-Bulb Temperature {C}
  0,                                      ! Daily Dry-Bulb Temperature Range {deltaC}
  11.9,                                   ! Humidity Indicating Conditions at Maximum Dry-Bulb {BasedOnField A3}
  101265,                                 ! Barometric Pressure {Pa}
  1.9,                                    ! Wind Speed {m/s}
  320,                                    ! Wind Direction {deg}
  0,                                      ! Sky Clearness
  0,                                      ! Rain Indicator
  0,                                      ! Snow Indicator
  21,                                     ! Day of Month
  2,                                      ! Month
  WinterDesignDay,                        ! Day Type
  0,                                      ! Daylight Saving Time Indicator
  Dewpoint,                               ! Humidity Indicating Type
  ,                                       ! Humidity Indicating Day Schedule Name
  DefaultMultipliers,                     ! Dry-Bulb Temperature Range Modifier Type
  ,                                       ! Dry-Bulb Temperature Range Modifier Schedule Name
  ASHRAEClearSky;                         ! Solar Model Indicator

OS:ComponentData,
  {f2c83356-1c2e-4367-ba65-d2893f7c1281}, ! Handle
  Component Data 1,                       ! Name
  {90b0836c-046d-4c1d-8481-43b8ee5998d3}, ! UUID
  {5e7b745a-e01c-4a33-9f00-a21d7b5279d2}, ! Version UUID
  1366307090,                             ! Creation Timestamp
  1366307090,                             ! Version Timestamp
  {096b424a-7e1f-48ae-bdf8-ffe6ba1b3251}; ! Name of Object 1

