
OS:Version,
  {5c72473b-15ec-4642-9b63-d50454aa4544}, ! Handle
  0.9.3;                                  ! Version Identifier

OS:SizingPeriod:DesignDay,
  {5a1a39a8-5543-4576-84f0-fa1e1c225e2b}, ! Handle
  Blue Canyon Ap Ann Htg 99% Condns DB,   ! Name
  -4.6,                                   ! Maximum Dry-Bulb Temperature {C}
  0,                                      ! Daily Dry-Bulb Temperature Range {deltaC}
  -4.6,                                   ! Humidity Indicating Conditions at Maximum Dry-Bulb {BasedOnField A3}
  83431,                                  ! Barometric Pressure {Pa}
  2.1,                                    ! Wind Speed {m/s}
  60,                                     ! Wind Direction {deg}
  0,                                      ! Sky Clearness
  0,                                      ! Rain Indicator
  0,                                      ! Snow Indicator
  21,                                     ! Day of Month
  2,                                      ! Month
  WinterDesignDay,                        ! Day Type
  0,                                      ! Daylight Saving Time Indicator
  Wetbulb,                                ! Humidity Indicating Type
  ,                                       ! Humidity Indicating Day Schedule Name
  DefaultMultipliers,                     ! Dry-Bulb Temperature Range Modifier Type
  ,                                       ! Dry-Bulb Temperature Range Modifier Schedule Name
  ASHRAEClearSky;                         ! Solar Model Indicator

OS:ComponentData,
  {29e360d0-e08a-4f77-b1b6-9c6b5fc2a76b}, ! Handle
  Component Data 1,                       ! Name
  {70ea1058-9e3b-47c7-9678-914401a23ba9}, ! UUID
  {6b877684-2f55-4c0b-a04e-fd88e92dd197}, ! Version UUID
  1366306386,                             ! Creation Timestamp
  1366306386,                             ! Version Timestamp
  {5a1a39a8-5543-4576-84f0-fa1e1c225e2b}; ! Name of Object 1

