
OS:Version,
  {9f5fde74-429c-4ec7-9c32-76583b0f82b6}, ! Handle
  0.9.3;                                  ! Version Identifier

OS:SizingPeriod:DesignDay,
  {82efb2fe-d65f-472e-8326-f1f85290b500}, ! Handle
  Laconia Muni  Awos Ann Clg 1% Condns DP=>MDB, ! Name
  25.2,                                   ! Maximum Dry-Bulb Temperature {C}
  10.5,                                   ! Daily Dry-Bulb Temperature Range {deltaC}
  20.7,                                   ! Humidity Indicating Conditions at Maximum Dry-Bulb {BasedOnField A3}
  99347,                                  ! Barometric Pressure {Pa}
  4.2,                                    ! Wind Speed {m/s}
  220,                                    ! Wind Direction {deg}
  0,                                      ! Sky Clearness
  0,                                      ! Rain Indicator
  0,                                      ! Snow Indicator
  21,                                     ! Day of Month
  7,                                      ! Month
  SummerDesignDay,                        ! Day Type
  0,                                      ! Daylight Saving Time Indicator
  Dewpoint,                               ! Humidity Indicating Type
  ,                                       ! Humidity Indicating Day Schedule Name
  DefaultMultipliers,                     ! Dry-Bulb Temperature Range Modifier Type
  ,                                       ! Dry-Bulb Temperature Range Modifier Schedule Name
  ASHRAETau,                              ! Solar Model Indicator
  ,                                       ! Beam Solar Day Schedule Name
  ,                                       ! Diffuse Solar Day Schedule Name
  0.453,                                  ! ASHRAE Taub {dimensionless}
  2.026;                                  ! ASHRAE Taud {dimensionless}

OS:ComponentData,
  {ebe4eac5-17c3-43db-86b9-0189587116f5}, ! Handle
  Component Data 1,                       ! Name
  {af99f9b2-5a9b-4f12-b372-ff1d96996a81}, ! UUID
  {1fc1b68b-b6df-46a1-8157-b6342fb73d2c}, ! Version UUID
  1366309250,                             ! Creation Timestamp
  1366309250,                             ! Version Timestamp
  {82efb2fe-d65f-472e-8326-f1f85290b500}; ! Name of Object 1

