
OS:Version,
  {ee46377d-702f-40c7-ae57-d37e4912604e}, ! Handle
  0.9.3;                                  ! Version Identifier

OS:SizingPeriod:DesignDay,
  {a9317d58-adc8-4a02-be00-500b813793dd}, ! Handle
  La Crosse Municipal Arpt Ann Clg 2% Condns Enth=>MDB, ! Name
  28.4,                                   ! Maximum Dry-Bulb Temperature {C}
  11.1,                                   ! Daily Dry-Bulb Temperature Range {deltaC}
  70700,                                  ! Humidity Indicating Conditions at Maximum Dry-Bulb {BasedOnField A3}
  98969,                                  ! Barometric Pressure {Pa}
  5.4,                                    ! Wind Speed {m/s}
  180,                                    ! Wind Direction {deg}
  0,                                      ! Sky Clearness
  0,                                      ! Rain Indicator
  0,                                      ! Snow Indicator
  21,                                     ! Day of Month
  7,                                      ! Month
  SummerDesignDay,                        ! Day Type
  0,                                      ! Daylight Saving Time Indicator
  Enthalpy,                               ! Humidity Indicating Type
  ,                                       ! Humidity Indicating Day Schedule Name
  DefaultMultipliers,                     ! Dry-Bulb Temperature Range Modifier Type
  ,                                       ! Dry-Bulb Temperature Range Modifier Schedule Name
  ASHRAETau,                              ! Solar Model Indicator
  ,                                       ! Beam Solar Day Schedule Name
  ,                                       ! Diffuse Solar Day Schedule Name
  0.431,                                  ! ASHRAE Taub {dimensionless}
  2.126;                                  ! ASHRAE Taud {dimensionless}

OS:ComponentData,
  {a8b1fa1a-6829-41de-8251-32aab0c01cf7}, ! Handle
  Component Data 1,                       ! Name
  {ac0007ec-e033-4a64-a14a-6e34840846f6}, ! UUID
  {c5cff133-bd0a-476a-88ba-ed1b5e2a804f}, ! Version UUID
  1366311515,                             ! Creation Timestamp
  1366311515,                             ! Version Timestamp
  {a9317d58-adc8-4a02-be00-500b813793dd}; ! Name of Object 1

