
OS:Version,
  {7b9b0e85-e833-4e49-8277-f5406f8200ea}, ! Handle
  0.9.3;                                  ! Version Identifier

OS:SizingPeriod:DesignDay,
  {edbe9678-02cd-4c27-bd75-bfb0f5c72f72}, ! Handle
  Homer Ann Clg .4% Condns WB=>MDB,       ! Name
  17.5,                                   ! Maximum Dry-Bulb Temperature {C}
  6.4,                                    ! Daily Dry-Bulb Temperature Range {deltaC}
  14.4,                                   ! Humidity Indicating Conditions at Maximum Dry-Bulb {BasedOnField A3}
  101025,                                 ! Barometric Pressure {Pa}
  4.4,                                    ! Wind Speed {m/s}
  250,                                    ! Wind Direction {deg}
  0,                                      ! Sky Clearness
  0,                                      ! Rain Indicator
  0,                                      ! Snow Indicator
  21,                                     ! Day of Month
  7,                                      ! Month
  SummerDesignDay,                        ! Day Type
  0,                                      ! Daylight Saving Time Indicator
  Wetbulb,                                ! Humidity Indicating Type
  ,                                       ! Humidity Indicating Day Schedule Name
  DefaultMultipliers,                     ! Dry-Bulb Temperature Range Modifier Type
  ,                                       ! Dry-Bulb Temperature Range Modifier Schedule Name
  ASHRAETau,                              ! Solar Model Indicator
  ,                                       ! Beam Solar Day Schedule Name
  ,                                       ! Diffuse Solar Day Schedule Name
  0.376,                                  ! ASHRAE Taub {dimensionless}
  2.236;                                  ! ASHRAE Taud {dimensionless}

OS:ComponentData,
  {04961199-9250-4c0b-a090-1e1effcde734}, ! Handle
  Component Data 1,                       ! Name
  {3af29acc-cbce-42f2-ba01-770ef69e155e}, ! UUID
  {ae4594aa-4a86-4eaf-8ec1-20ecc06f16a2}, ! Version UUID
  1366305304,                             ! Creation Timestamp
  1366305304,                             ! Version Timestamp
  {edbe9678-02cd-4c27-bd75-bfb0f5c72f72}; ! Name of Object 1

