
OS:Version,
  {6636dc1d-9c34-498b-b600-0a5af086c554}, ! Handle
  0.9.3;                                  ! Version Identifier

OS:SizingPeriod:DesignDay,
  {68e4e913-67f4-4c50-b59d-eb707c9b8516}, ! Handle
  Dillingham  Amos Ann Clg 1% Condns WB=>MDB, ! Name
  18,                                     ! Maximum Dry-Bulb Temperature {C}
  7.2,                                    ! Daily Dry-Bulb Temperature Range {deltaC}
  14.1,                                   ! Humidity Indicating Conditions at Maximum Dry-Bulb {BasedOnField A3}
  100977,                                 ! Barometric Pressure {Pa}
  4.1,                                    ! Wind Speed {m/s}
  180,                                    ! Wind Direction {deg}
  0,                                      ! Sky Clearness
  0,                                      ! Rain Indicator
  0,                                      ! Snow Indicator
  21,                                     ! Day of Month
  7,                                      ! Month
  SummerDesignDay,                        ! Day Type
  0,                                      ! Daylight Saving Time Indicator
  Wetbulb,                                ! Humidity Indicating Type
  ,                                       ! Humidity Indicating Day Schedule Name
  DefaultMultipliers,                     ! Dry-Bulb Temperature Range Modifier Type
  ,                                       ! Dry-Bulb Temperature Range Modifier Schedule Name
  ASHRAETau,                              ! Solar Model Indicator
  ,                                       ! Beam Solar Day Schedule Name
  ,                                       ! Diffuse Solar Day Schedule Name
  0.382,                                  ! ASHRAE Taub {dimensionless}
  2.243;                                  ! ASHRAE Taud {dimensionless}

OS:ComponentData,
  {e768156a-4a1e-400c-86b6-cf8f35624c20}, ! Handle
  Component Data 1,                       ! Name
  {260696b2-fea5-4785-8e8e-115dd4a1f57a}, ! UUID
  {634bb883-9916-44da-919b-586a5d6c8653}, ! Version UUID
  1366305234,                             ! Creation Timestamp
  1366305234,                             ! Version Timestamp
  {68e4e913-67f4-4c50-b59d-eb707c9b8516}; ! Name of Object 1

