
OS:Version,
  {d1c7ab1f-d516-469a-a3d3-772bbca0f400}, ! Handle
  0.9.3;                                  ! Version Identifier

OS:SizingPeriod:DesignDay,
  {26c8fefe-4822-4533-bb11-4f55bb1a8baa}, ! Handle
  Camp Pendleton Mcas Ann Clg 1% Condns DB=>MWB, ! Name
  31,                                     ! Maximum Dry-Bulb Temperature {C}
  11.1,                                   ! Daily Dry-Bulb Temperature Range {deltaC}
  19,                                     ! Humidity Indicating Conditions at Maximum Dry-Bulb {BasedOnField A3}
  101049,                                 ! Barometric Pressure {Pa}
  4.2,                                    ! Wind Speed {m/s}
  210,                                    ! Wind Direction {deg}
  0,                                      ! Sky Clearness
  0,                                      ! Rain Indicator
  0,                                      ! Snow Indicator
  21,                                     ! Day of Month
  8,                                      ! Month
  SummerDesignDay,                        ! Day Type
  0,                                      ! Daylight Saving Time Indicator
  Wetbulb,                                ! Humidity Indicating Type
  ,                                       ! Humidity Indicating Day Schedule Name
  DefaultMultipliers,                     ! Dry-Bulb Temperature Range Modifier Type
  ,                                       ! Dry-Bulb Temperature Range Modifier Schedule Name
  ASHRAETau,                              ! Solar Model Indicator
  ,                                       ! Beam Solar Day Schedule Name
  ,                                       ! Diffuse Solar Day Schedule Name
  0.432,                                  ! ASHRAE Taub {dimensionless}
  2.16;                                   ! ASHRAE Taud {dimensionless}

OS:ComponentData,
  {5dc212a2-aa96-4b4a-91bb-ee3300280975}, ! Handle
  Component Data 1,                       ! Name
  {c1a978e0-41d2-46a4-b64f-60b5441711ae}, ! UUID
  {17e96b58-48e8-4282-a910-ac55bbbcb5bd}, ! Version UUID
  1366306399,                             ! Creation Timestamp
  1366306399,                             ! Version Timestamp
  {26c8fefe-4822-4533-bb11-4f55bb1a8baa}; ! Name of Object 1

