
OS:Version,
  {4bf6f102-85c8-45fd-96cd-b97c7a38522d}, ! Handle
  0.9.3;                                  ! Version Identifier

OS:SizingPeriod:DesignDay,
  {977b1234-6db5-46dd-a7d5-3e39e4ca03d5}, ! Handle
  ALAMOSA Ann Clg 1% Condns Enth=>MDB,    ! Name
  23.9,                                   ! Maximum Dry-Bulb Temperature {C}
  18.7,                                   ! Daily Dry-Bulb Temperature Range {deltaC}
  49400,                                  ! Humidity Indicating Conditions at Maximum Dry-Bulb {BasedOnField A3}
  76607,                                  ! Barometric Pressure {Pa}
  5,                                      ! Wind Speed {m/s}
  240,                                    ! Wind Direction {deg}
  0,                                      ! Sky Clearness
  0,                                      ! Rain Indicator
  0,                                      ! Snow Indicator
  21,                                     ! Day of Month
  7,                                      ! Month
  SummerDesignDay,                        ! Day Type
  0,                                      ! Daylight Saving Time Indicator
  Enthalpy,                               ! Humidity Indicating Type
  ,                                       ! Humidity Indicating Day Schedule Name
  DefaultMultipliers,                     ! Dry-Bulb Temperature Range Modifier Type
  ,                                       ! Dry-Bulb Temperature Range Modifier Schedule Name
  ASHRAETau,                              ! Solar Model Indicator
  ,                                       ! Beam Solar Day Schedule Name
  ,                                       ! Diffuse Solar Day Schedule Name
  0.422,                                  ! ASHRAE Taub {dimensionless}
  2;                                      ! ASHRAE Taud {dimensionless}

OS:ComponentData,
  {c49be7d1-74a9-4d68-971c-3bd3f07bffc7}, ! Handle
  Component Data 1,                       ! Name
  {6631a75c-f151-431b-aa5a-b1e8303605ac}, ! UUID
  {4b49fea3-3075-44dc-bb6e-40c9770dee88}, ! Version UUID
  1366306639,                             ! Creation Timestamp
  1366306639,                             ! Version Timestamp
  {977b1234-6db5-46dd-a7d5-3e39e4ca03d5}; ! Name of Object 1

