
OS:Version,
  {d121887c-8981-4409-a25f-61ea2427ffd1}, ! Handle
  0.9.3;                                  ! Version Identifier

OS:SizingPeriod:DesignDay,
  {9ad89f44-7a03-4dc3-9551-7606fe07daac}, ! Handle
  Crestview Bob Sikes Ap Ann Hum_n 99% Condns DP=>MCDB, ! Name
  3.7,                                    ! Maximum Dry-Bulb Temperature {C}
  0,                                      ! Daily Dry-Bulb Temperature Range {deltaC}
  -8.7,                                   ! Humidity Indicating Conditions at Maximum Dry-Bulb {BasedOnField A3}
  100630,                                 ! Barometric Pressure {Pa}
  0.9,                                    ! Wind Speed {m/s}
  0,                                      ! Wind Direction {deg}
  0,                                      ! Sky Clearness
  0,                                      ! Rain Indicator
  0,                                      ! Snow Indicator
  21,                                     ! Day of Month
  1,                                      ! Month
  WinterDesignDay,                        ! Day Type
  0,                                      ! Daylight Saving Time Indicator
  Dewpoint,                               ! Humidity Indicating Type
  ,                                       ! Humidity Indicating Day Schedule Name
  DefaultMultipliers,                     ! Dry-Bulb Temperature Range Modifier Type
  ,                                       ! Dry-Bulb Temperature Range Modifier Schedule Name
  ASHRAEClearSky;                         ! Solar Model Indicator

OS:ComponentData,
  {2b5b609e-fee1-47cb-ab2a-0f66a54a631b}, ! Handle
  Component Data 1,                       ! Name
  {3a699f0c-515e-4a74-9a8a-6960620544d6}, ! UUID
  {f46d4435-0e8f-4cb6-862c-bca507387d10}, ! Version UUID
  1366306784,                             ! Creation Timestamp
  1366306784,                             ! Version Timestamp
  {9ad89f44-7a03-4dc3-9551-7606fe07daac}; ! Name of Object 1

