
OS:Version,
  {bba70542-2249-4973-8ecb-313a104d6122}, ! Handle
  0.9.3;                                  ! Version Identifier

OS:SizingPeriod:DesignDay,
  {dda7137b-ca0b-420c-a7e2-ea7b98c37341}, ! Handle
  ELKO Ann Clg 2% Condns DP=>MDB,         ! Name
  19.6,                                   ! Maximum Dry-Bulb Temperature {C}
  21.8,                                   ! Daily Dry-Bulb Temperature Range {deltaC}
  10.1,                                   ! Humidity Indicating Conditions at Maximum Dry-Bulb {BasedOnField A3}
  84069,                                  ! Barometric Pressure {Pa}
  4.1,                                    ! Wind Speed {m/s}
  240,                                    ! Wind Direction {deg}
  0,                                      ! Sky Clearness
  0,                                      ! Rain Indicator
  0,                                      ! Snow Indicator
  21,                                     ! Day of Month
  7,                                      ! Month
  SummerDesignDay,                        ! Day Type
  0,                                      ! Daylight Saving Time Indicator
  Dewpoint,                               ! Humidity Indicating Type
  ,                                       ! Humidity Indicating Day Schedule Name
  DefaultMultipliers,                     ! Dry-Bulb Temperature Range Modifier Type
  ,                                       ! Dry-Bulb Temperature Range Modifier Schedule Name
  ASHRAETau,                              ! Solar Model Indicator
  ,                                       ! Beam Solar Day Schedule Name
  ,                                       ! Diffuse Solar Day Schedule Name
  0.446,                                  ! ASHRAE Taub {dimensionless}
  1.888;                                  ! ASHRAE Taud {dimensionless}

OS:ComponentData,
  {db366945-3230-447b-8aa3-547a80350861}, ! Handle
  Component Data 1,                       ! Name
  {2fc552a8-b91a-45cd-a0cb-67d38f4fb7d7}, ! UUID
  {fdcba683-468b-4e6a-a470-e9c38584df3b}, ! Version UUID
  1366309459,                             ! Creation Timestamp
  1366309459,                             ! Version Timestamp
  {dda7137b-ca0b-420c-a7e2-ea7b98c37341}; ! Name of Object 1

