
OS:Version,
  {1a1ecca3-4e7e-47d4-b6d4-29bd828ce248}, ! Handle
  0.9.3;                                  ! Version Identifier

OS:SizingPeriod:DesignDay,
  {84159332-767b-44f7-af75-9015d1d361ad}, ! Handle
  Davison Aaf Ann Clg 1% Condns Enth=>MDB, ! Name
  31.4,                                   ! Maximum Dry-Bulb Temperature {C}
  11.7,                                   ! Daily Dry-Bulb Temperature Range {deltaC}
  78200,                                  ! Humidity Indicating Conditions at Maximum Dry-Bulb {BasedOnField A3}
  101001,                                 ! Barometric Pressure {Pa}
  2.9,                                    ! Wind Speed {m/s}
  160,                                    ! Wind Direction {deg}
  0,                                      ! Sky Clearness
  0,                                      ! Rain Indicator
  0,                                      ! Snow Indicator
  21,                                     ! Day of Month
  7,                                      ! Month
  SummerDesignDay,                        ! Day Type
  0,                                      ! Daylight Saving Time Indicator
  Enthalpy,                               ! Humidity Indicating Type
  ,                                       ! Humidity Indicating Day Schedule Name
  DefaultMultipliers,                     ! Dry-Bulb Temperature Range Modifier Type
  ,                                       ! Dry-Bulb Temperature Range Modifier Schedule Name
  ASHRAETau,                              ! Solar Model Indicator
  ,                                       ! Beam Solar Day Schedule Name
  ,                                       ! Diffuse Solar Day Schedule Name
  0.566,                                  ! ASHRAE Taub {dimensionless}
  1.742;                                  ! ASHRAE Taud {dimensionless}

