
OS:Version,
  {c511e700-d5cb-48b5-a2fd-5bb8f1eef1c8}, ! Handle
  0.9.3;                                  ! Version Identifier

OS:SizingPeriod:DesignDay,
  {a7970158-558f-4900-9c01-edf02d8d6f2f}, ! Handle
  Hartford/Brainard Fiel Ann Hum_n 99% Condns DP=>MCDB, ! Name
  -11.5,                                  ! Maximum Dry-Bulb Temperature {C}
  0,                                      ! Daily Dry-Bulb Temperature Range {deltaC}
  -21.8,                                  ! Humidity Indicating Conditions at Maximum Dry-Bulb {BasedOnField A3}
  101253,                                 ! Barometric Pressure {Pa}
  3.3,                                    ! Wind Speed {m/s}
  330,                                    ! Wind Direction {deg}
  0,                                      ! Sky Clearness
  0,                                      ! Rain Indicator
  0,                                      ! Snow Indicator
  21,                                     ! Day of Month
  1,                                      ! Month
  WinterDesignDay,                        ! Day Type
  0,                                      ! Daylight Saving Time Indicator
  Dewpoint,                               ! Humidity Indicating Type
  ,                                       ! Humidity Indicating Day Schedule Name
  DefaultMultipliers,                     ! Dry-Bulb Temperature Range Modifier Type
  ,                                       ! Dry-Bulb Temperature Range Modifier Schedule Name
  ASHRAEClearSky;                         ! Solar Model Indicator

OS:ComponentData,
  {bd9b32f3-6ad3-463c-a468-dd4175125f43}, ! Handle
  Component Data 1,                       ! Name
  {b5f4b243-83cf-4c89-973f-b7ac65755686}, ! UUID
  {9f1df656-29d5-4847-afe1-ffb2f90b12db}, ! Version UUID
  1366306753,                             ! Creation Timestamp
  1366306753,                             ! Version Timestamp
  {a7970158-558f-4900-9c01-edf02d8d6f2f}; ! Name of Object 1

