
OS:Version,
  {156945fe-a10e-4c52-b5ba-fb658d822337}, ! Handle
  0.9.3;                                  ! Version Identifier

OS:SizingPeriod:DesignDay,
  {9f8a9432-e583-45fb-b9eb-1ed758adde9d}, ! Handle
  Flying Cloud Ann Clg 1% Condns WB=>MDB, ! Name
  29.1,                                   ! Maximum Dry-Bulb Temperature {C}
  10.1,                                   ! Daily Dry-Bulb Temperature Range {deltaC}
  24.3,                                   ! Humidity Indicating Conditions at Maximum Dry-Bulb {BasedOnField A3}
  97971,                                  ! Barometric Pressure {Pa}
  5.3,                                    ! Wind Speed {m/s}
  180,                                    ! Wind Direction {deg}
  0,                                      ! Sky Clearness
  0,                                      ! Rain Indicator
  0,                                      ! Snow Indicator
  21,                                     ! Day of Month
  7,                                      ! Month
  SummerDesignDay,                        ! Day Type
  0,                                      ! Daylight Saving Time Indicator
  Wetbulb,                                ! Humidity Indicating Type
  ,                                       ! Humidity Indicating Day Schedule Name
  DefaultMultipliers,                     ! Dry-Bulb Temperature Range Modifier Type
  ,                                       ! Dry-Bulb Temperature Range Modifier Schedule Name
  ASHRAETau,                              ! Solar Model Indicator
  ,                                       ! Beam Solar Day Schedule Name
  ,                                       ! Diffuse Solar Day Schedule Name
  0.416,                                  ! ASHRAE Taub {dimensionless}
  2.176;                                  ! ASHRAE Taud {dimensionless}

OS:ComponentData,
  {10a1bad8-4696-4f16-9c61-ff15c9ae49cc}, ! Handle
  Component Data 1,                       ! Name
  {592aa156-377b-4d09-a894-a5d095199a5a}, ! UUID
  {c551d481-b6bc-4a2a-afe9-3ff95d6c36bb}, ! Version UUID
  1366308211,                             ! Creation Timestamp
  1366308211,                             ! Version Timestamp
  {9f8a9432-e583-45fb-b9eb-1ed758adde9d}; ! Name of Object 1

