
OS:Version,
  {0ee6f9ac-7e12-469b-b9f0-e6eb6f4bac69}, ! Handle
  0.9.3;                                  ! Version Identifier

OS:SizingPeriod:DesignDay,
  {fc8654be-bc92-4dda-91fe-bd1638be38e9}, ! Handle
  La Crosse Ann Htg 99.6% Condns DB,      ! Name
  -24.6,                                  ! Maximum Dry-Bulb Temperature {C}
  0,                                      ! Daily Dry-Bulb Temperature Range {deltaC}
  -24.6,                                  ! Humidity Indicating Conditions at Maximum Dry-Bulb {BasedOnField A3}
  98922,                                  ! Barometric Pressure {Pa}
  3.4,                                    ! Wind Speed {m/s}
  330,                                    ! Wind Direction {deg}
  0,                                      ! Sky Clearness
  0,                                      ! Rain Indicator
  0,                                      ! Snow Indicator
  21,                                     ! Day of Month
  1,                                      ! Month
  WinterDesignDay,                        ! Day Type
  0,                                      ! Daylight Saving Time Indicator
  Wetbulb,                                ! Humidity Indicating Type
  ,                                       ! Humidity Indicating Day Schedule Name
  DefaultMultipliers,                     ! Dry-Bulb Temperature Range Modifier Type
  ,                                       ! Dry-Bulb Temperature Range Modifier Schedule Name
  ASHRAEClearSky;                         ! Solar Model Indicator

OS:ComponentData,
  {aed23411-e7bb-426e-bc4d-bc5c47114834}, ! Handle
  Component Data 1,                       ! Name
  {2c62f01b-3c69-409f-a455-6b9eb9fee022}, ! UUID
  {4ad151fd-29da-4c2b-a5d2-f0a74d88f76d}, ! Version UUID
  1366311506,                             ! Creation Timestamp
  1366311506,                             ! Version Timestamp
  {fc8654be-bc92-4dda-91fe-bd1638be38e9}; ! Name of Object 1

