
OS:Version,
  {0e553a2c-0614-4d98-804c-1fb795fc1ba5}, ! Handle
  0.9.3;                                  ! Version Identifier

OS:SizingPeriod:DesignDay,
  {7e1cb123-9945-4795-81fe-7fe9a51694ed}, ! Handle
  Dillant Hopkins Ann Clg 1% Condns Enth=>MDB, ! Name
  26.6,                                   ! Maximum Dry-Bulb Temperature {C}
  12.2,                                   ! Daily Dry-Bulb Temperature Range {deltaC}
  66300,                                  ! Humidity Indicating Conditions at Maximum Dry-Bulb {BasedOnField A3}
  99500,                                  ! Barometric Pressure {Pa}
  3.5,                                    ! Wind Speed {m/s}
  220,                                    ! Wind Direction {deg}
  0,                                      ! Sky Clearness
  0,                                      ! Rain Indicator
  0,                                      ! Snow Indicator
  21,                                     ! Day of Month
  7,                                      ! Month
  SummerDesignDay,                        ! Day Type
  0,                                      ! Daylight Saving Time Indicator
  Enthalpy,                               ! Humidity Indicating Type
  ,                                       ! Humidity Indicating Day Schedule Name
  DefaultMultipliers,                     ! Dry-Bulb Temperature Range Modifier Type
  ,                                       ! Dry-Bulb Temperature Range Modifier Schedule Name
  ASHRAETau,                              ! Solar Model Indicator
  ,                                       ! Beam Solar Day Schedule Name
  ,                                       ! Diffuse Solar Day Schedule Name
  0.454,                                  ! ASHRAE Taub {dimensionless}
  2.041;                                  ! ASHRAE Taud {dimensionless}

OS:ComponentData,
  {af45652c-8d77-446b-bb0b-0af33205cfac}, ! Handle
  Component Data 1,                       ! Name
  {6149a1e0-900b-42c0-8e44-9602f90c56d9}, ! UUID
  {d043ed97-5067-4df2-a850-6e40259820f1}, ! Version UUID
  1366309238,                             ! Creation Timestamp
  1366309238,                             ! Version Timestamp
  {7e1cb123-9945-4795-81fe-7fe9a51694ed}; ! Name of Object 1

