
OS:Version,
  {b499102d-6bfe-405a-9bd0-b8d0f7cbd260}, ! Handle
  0.9.3;                                  ! Version Identifier

OS:SizingPeriod:DesignDay,
  {0a6d7da0-936e-4cb6-bed0-f51cf3ec34d9}, ! Handle
  Charles City Ann Clg .4% Condns WB=>MDB, ! Name
  30.2,                                   ! Maximum Dry-Bulb Temperature {C}
  10.4,                                   ! Daily Dry-Bulb Temperature Range {deltaC}
  26.9,                                   ! Humidity Indicating Conditions at Maximum Dry-Bulb {BasedOnField A3}
  97272,                                  ! Barometric Pressure {Pa}
  5.1,                                    ! Wind Speed {m/s}
  190,                                    ! Wind Direction {deg}
  0,                                      ! Sky Clearness
  0,                                      ! Rain Indicator
  0,                                      ! Snow Indicator
  21,                                     ! Day of Month
  7,                                      ! Month
  SummerDesignDay,                        ! Day Type
  0,                                      ! Daylight Saving Time Indicator
  Wetbulb,                                ! Humidity Indicating Type
  ,                                       ! Humidity Indicating Day Schedule Name
  DefaultMultipliers,                     ! Dry-Bulb Temperature Range Modifier Type
  ,                                       ! Dry-Bulb Temperature Range Modifier Schedule Name
  ASHRAETau,                              ! Solar Model Indicator
  ,                                       ! Beam Solar Day Schedule Name
  ,                                       ! Diffuse Solar Day Schedule Name
  0.414,                                  ! ASHRAE Taub {dimensionless}
  2.191;                                  ! ASHRAE Taud {dimensionless}

OS:ComponentData,
  {0fba8706-8c1c-459f-857f-e25e197ae7fd}, ! Handle
  Component Data 1,                       ! Name
  {553c732e-cf64-4623-935e-503c14c961ce}, ! UUID
  {f86da8e3-ad57-437c-803a-8c44aff60a4f}, ! Version UUID
  1366307155,                             ! Creation Timestamp
  1366307155,                             ! Version Timestamp
  {0a6d7da0-936e-4cb6-bed0-f51cf3ec34d9}; ! Name of Object 1

