
OS:Version,
  {f16ce739-7d20-4c41-9650-e8844b53173a}, ! Handle
  0.9.3;                                  ! Version Identifier

OS:SizingPeriod:DesignDay,
  {b1e4fac0-0fcd-4f69-bec2-a40cb6a14383}, ! Handle
  Berlin Municipal Ann Clg 2% Condns WB=>MDB, ! Name
  24.5,                                   ! Maximum Dry-Bulb Temperature {C}
  13.8,                                   ! Daily Dry-Bulb Temperature Range {deltaC}
  20,                                     ! Humidity Indicating Conditions at Maximum Dry-Bulb {BasedOnField A3}
  97156,                                  ! Barometric Pressure {Pa}
  3,                                      ! Wind Speed {m/s}
  290,                                    ! Wind Direction {deg}
  0,                                      ! Sky Clearness
  0,                                      ! Rain Indicator
  0,                                      ! Snow Indicator
  21,                                     ! Day of Month
  7,                                      ! Month
  SummerDesignDay,                        ! Day Type
  0,                                      ! Daylight Saving Time Indicator
  Wetbulb,                                ! Humidity Indicating Type
  ,                                       ! Humidity Indicating Day Schedule Name
  DefaultMultipliers,                     ! Dry-Bulb Temperature Range Modifier Type
  ,                                       ! Dry-Bulb Temperature Range Modifier Schedule Name
  ASHRAETau,                              ! Solar Model Indicator
  ,                                       ! Beam Solar Day Schedule Name
  ,                                       ! Diffuse Solar Day Schedule Name
  0.442,                                  ! ASHRAE Taub {dimensionless}
  2.043;                                  ! ASHRAE Taud {dimensionless}

OS:ComponentData,
  {3f6828b4-7f17-4f4f-8614-0edd9e0ebc97}, ! Handle
  Component Data 1,                       ! Name
  {9cb744c5-f49e-455c-b891-655480c63763}, ! UUID
  {ff405338-a09e-449e-9302-e1fa263e193e}, ! Version UUID
  1366309215,                             ! Creation Timestamp
  1366309215,                             ! Version Timestamp
  {b1e4fac0-0fcd-4f69-bec2-a40cb6a14383}; ! Name of Object 1

