
OS:Version,
  {6ef5a5d3-3692-4276-b863-84e082a643f4}, ! Handle
  0.9.3;                                  ! Version Identifier

OS:SizingPeriod:DesignDay,
  {beec3eba-7f4d-45dc-983d-a073d738f338}, ! Handle
  Columbia Metro Arpt Ann Clg 1% Condns Enth=>MDB, ! Name
  31.4,                                   ! Maximum Dry-Bulb Temperature {C}
  11.1,                                   ! Daily Dry-Bulb Temperature Range {deltaC}
  77500,                                  ! Humidity Indicating Conditions at Maximum Dry-Bulb {BasedOnField A3}
  100547,                                 ! Barometric Pressure {Pa}
  3.9,                                    ! Wind Speed {m/s}
  240,                                    ! Wind Direction {deg}
  0,                                      ! Sky Clearness
  0,                                      ! Rain Indicator
  0,                                      ! Snow Indicator
  21,                                     ! Day of Month
  7,                                      ! Month
  SummerDesignDay,                        ! Day Type
  0,                                      ! Daylight Saving Time Indicator
  Enthalpy,                               ! Humidity Indicating Type
  ,                                       ! Humidity Indicating Day Schedule Name
  DefaultMultipliers,                     ! Dry-Bulb Temperature Range Modifier Type
  ,                                       ! Dry-Bulb Temperature Range Modifier Schedule Name
  ASHRAETau,                              ! Solar Model Indicator
  ,                                       ! Beam Solar Day Schedule Name
  ,                                       ! Diffuse Solar Day Schedule Name
  0.566,                                  ! ASHRAE Taub {dimensionless}
  1.764;                                  ! ASHRAE Taud {dimensionless}

OS:ComponentData,
  {56418e70-3cc0-47d6-8e46-d8a13491b28c}, ! Handle
  Component Data 1,                       ! Name
  {6d9c7b38-8b75-4085-8c79-c5fe33a198ee}, ! UUID
  {5cefb7c2-92df-4003-b0c3-4cf0a013bc36}, ! Version UUID
  1366310349,                             ! Creation Timestamp
  1366310349,                             ! Version Timestamp
  {beec3eba-7f4d-45dc-983d-a073d738f338}; ! Name of Object 1

