
OS:Version,
  {de4c6327-da59-4437-b78d-22f4a6f1ecc1}, ! Handle
  0.9.3;                                  ! Version Identifier

OS:SizingPeriod:DesignDay,
  {2b174335-9082-4133-9b70-8d166b50eff1}, ! Handle
  London Corbin Ap Ann Hum_n 99% Condns DP=>MCDB, ! Name
  -7.2,                                   ! Maximum Dry-Bulb Temperature {C}
  0,                                      ! Daily Dry-Bulb Temperature Range {deltaC}
  -14.6,                                  ! Humidity Indicating Conditions at Maximum Dry-Bulb {BasedOnField A3}
  97051,                                  ! Barometric Pressure {Pa}
  2.1,                                    ! Wind Speed {m/s}
  260,                                    ! Wind Direction {deg}
  0,                                      ! Sky Clearness
  0,                                      ! Rain Indicator
  0,                                      ! Snow Indicator
  21,                                     ! Day of Month
  1,                                      ! Month
  WinterDesignDay,                        ! Day Type
  0,                                      ! Daylight Saving Time Indicator
  Dewpoint,                               ! Humidity Indicating Type
  ,                                       ! Humidity Indicating Day Schedule Name
  DefaultMultipliers,                     ! Dry-Bulb Temperature Range Modifier Type
  ,                                       ! Dry-Bulb Temperature Range Modifier Schedule Name
  ASHRAEClearSky;                         ! Solar Model Indicator

OS:ComponentData,
  {f464cf94-d97f-46d0-89b4-845151b93205}, ! Handle
  Component Data 1,                       ! Name
  {6b72c82e-b108-491f-b678-cb62ff92f032}, ! UUID
  {0c13ba90-361c-4024-baf4-a9b532a569e6}, ! Version UUID
  1366307659,                             ! Creation Timestamp
  1366307659,                             ! Version Timestamp
  {2b174335-9082-4133-9b70-8d166b50eff1}; ! Name of Object 1

