
OS:Version,
  {e21e1ea3-0871-4dde-87f3-0df938328952}, ! Handle
  0.9.3;                                  ! Version Identifier

OS:SizingPeriod:DesignDay,
  {9c78c2e6-b5c7-4ec9-ba0c-de605859658e}, ! Handle
  Fort Lauderdale Hollywood Int Ann Hum_n 99% Condns DP=>MCDB, ! Name
  13,                                     ! Maximum Dry-Bulb Temperature {C}
  0,                                      ! Daily Dry-Bulb Temperature Range {deltaC}
  2.6,                                    ! Humidity Indicating Conditions at Maximum Dry-Bulb {BasedOnField A3}
  101289,                                 ! Barometric Pressure {Pa}
  4,                                      ! Wind Speed {m/s}
  320,                                    ! Wind Direction {deg}
  0,                                      ! Sky Clearness
  0,                                      ! Rain Indicator
  0,                                      ! Snow Indicator
  21,                                     ! Day of Month
  1,                                      ! Month
  WinterDesignDay,                        ! Day Type
  0,                                      ! Daylight Saving Time Indicator
  Dewpoint,                               ! Humidity Indicating Type
  ,                                       ! Humidity Indicating Day Schedule Name
  DefaultMultipliers,                     ! Dry-Bulb Temperature Range Modifier Type
  ,                                       ! Dry-Bulb Temperature Range Modifier Schedule Name
  ASHRAEClearSky;                         ! Solar Model Indicator

OS:ComponentData,
  {5c9bc8fa-6843-4c6c-8828-8fe19eaafc5d}, ! Handle
  Component Data 1,                       ! Name
  {152c7c6d-3ede-4974-be7b-d4a172e4b692}, ! UUID
  {d43c87d0-1c52-45c9-af57-6411edc27f82}, ! Version UUID
  1366306797,                             ! Creation Timestamp
  1366306797,                             ! Version Timestamp
  {9c78c2e6-b5c7-4ec9-ba0c-de605859658e}; ! Name of Object 1

