
OS:Version,
  {d53ba52b-6560-4419-afbb-25c26171d94f}, ! Handle
  0.9.3;                                  ! Version Identifier

OS:SizingPeriod:DesignDay,
  {c0fa66e0-79a7-44cb-a602-2bd2ac5fe5f3}, ! Handle
  Austin Ann Hum_n 99% Condns DP=>MCDB,   ! Name
  4.5,                                    ! Maximum Dry-Bulb Temperature {C}
  0,                                      ! Daily Dry-Bulb Temperature Range {deltaC}
  -8.6,                                   ! Humidity Indicating Conditions at Maximum Dry-Bulb {BasedOnField A3}
  99075,                                  ! Barometric Pressure {Pa}
  3.2,                                    ! Wind Speed {m/s}
  10,                                     ! Wind Direction {deg}
  0,                                      ! Sky Clearness
  0,                                      ! Rain Indicator
  0,                                      ! Snow Indicator
  21,                                     ! Day of Month
  1,                                      ! Month
  WinterDesignDay,                        ! Day Type
  0,                                      ! Daylight Saving Time Indicator
  Dewpoint,                               ! Humidity Indicating Type
  ,                                       ! Humidity Indicating Day Schedule Name
  DefaultMultipliers,                     ! Dry-Bulb Temperature Range Modifier Type
  ,                                       ! Dry-Bulb Temperature Range Modifier Schedule Name
  ASHRAEClearSky;                         ! Solar Model Indicator

OS:ComponentData,
  {d7a6f734-8335-4279-bd72-ebfbe426eda7}, ! Handle
  Component Data 1,                       ! Name
  {8b047d50-dfce-4572-97c3-9bbb9e35dbc0}, ! UUID
  {c42bdcd5-beab-4243-a471-b4f0e67c4a7e}, ! Version UUID
  1366310582,                             ! Creation Timestamp
  1366310582,                             ! Version Timestamp
  {c0fa66e0-79a7-44cb-a602-2bd2ac5fe5f3}; ! Name of Object 1

