
OS:Version,
  {4413fc08-5bcd-46f6-b9ca-964b5596d679}, ! Handle
  0.9.3;                                  ! Version Identifier

OS:SizingPeriod:DesignDay,
  {6d43f6c1-b9f2-4a03-8d91-e16a9601b392}, ! Handle
  Little Rock/AFB Ann Clg 1% Condns DP=>MDB, ! Name
  29.1,                                   ! Maximum Dry-Bulb Temperature {C}
  10.6,                                   ! Daily Dry-Bulb Temperature Range {deltaC}
  24.6,                                   ! Humidity Indicating Conditions at Maximum Dry-Bulb {BasedOnField A3}
  100189,                                 ! Barometric Pressure {Pa}
  3.9,                                    ! Wind Speed {m/s}
  200,                                    ! Wind Direction {deg}
  0,                                      ! Sky Clearness
  0,                                      ! Rain Indicator
  0,                                      ! Snow Indicator
  21,                                     ! Day of Month
  7,                                      ! Month
  SummerDesignDay,                        ! Day Type
  0,                                      ! Daylight Saving Time Indicator
  Dewpoint,                               ! Humidity Indicating Type
  ,                                       ! Humidity Indicating Day Schedule Name
  DefaultMultipliers,                     ! Dry-Bulb Temperature Range Modifier Type
  ,                                       ! Dry-Bulb Temperature Range Modifier Schedule Name
  ASHRAETau,                              ! Solar Model Indicator
  ,                                       ! Beam Solar Day Schedule Name
  ,                                       ! Diffuse Solar Day Schedule Name
  0.517,                                  ! ASHRAE Taub {dimensionless}
  1.901;                                  ! ASHRAE Taud {dimensionless}

OS:ComponentData,
  {9432f5fe-d4b7-441e-98bd-bb6476f0214f}, ! Handle
  Component Data 1,                       ! Name
  {108d2885-0eba-4f41-8b43-c3a05b0c3b38}, ! UUID
  {441aed34-99f8-44ab-8ce0-aa3497dbf001}, ! Version UUID
  1366306225,                             ! Creation Timestamp
  1366306225,                             ! Version Timestamp
  {6d43f6c1-b9f2-4a03-8d91-e16a9601b392}; ! Name of Object 1

