
OS:Version,
  {3730b839-64b2-40a5-a416-8ab74fd0b841}, ! Handle
  0.9.3;                                  ! Version Identifier

OS:SizingPeriod:DesignDay,
  {1bf3d05d-0b86-404c-a7a1-2d653dfd966e}, ! Handle
  ABILENE Ann Clg 2% Condns DP=>MDB,      ! Name
  26,                                     ! Maximum Dry-Bulb Temperature {C}
  11.6,                                   ! Daily Dry-Bulb Temperature Range {deltaC}
  21,                                     ! Humidity Indicating Conditions at Maximum Dry-Bulb {BasedOnField A3}
  95072,                                  ! Barometric Pressure {Pa}
  5.3,                                    ! Wind Speed {m/s}
  160,                                    ! Wind Direction {deg}
  0,                                      ! Sky Clearness
  0,                                      ! Rain Indicator
  0,                                      ! Snow Indicator
  21,                                     ! Day of Month
  7,                                      ! Month
  SummerDesignDay,                        ! Day Type
  0,                                      ! Daylight Saving Time Indicator
  Dewpoint,                               ! Humidity Indicating Type
  ,                                       ! Humidity Indicating Day Schedule Name
  DefaultMultipliers,                     ! Dry-Bulb Temperature Range Modifier Type
  ,                                       ! Dry-Bulb Temperature Range Modifier Schedule Name
  ASHRAETau,                              ! Solar Model Indicator
  ,                                       ! Beam Solar Day Schedule Name
  ,                                       ! Diffuse Solar Day Schedule Name
  0.426,                                  ! ASHRAE Taub {dimensionless}
  2.172;                                  ! ASHRAE Taud {dimensionless}

OS:ComponentData,
  {f56aa9c4-a198-46b0-a242-706b30371afd}, ! Handle
  Component Data 1,                       ! Name
  {a9aa5fdd-9c6d-4770-a752-246542fd8c1a}, ! UUID
  {8406da47-f60f-4f20-ae7b-46965de30cac}, ! Version UUID
  1366310551,                             ! Creation Timestamp
  1366310551,                             ! Version Timestamp
  {1bf3d05d-0b86-404c-a7a1-2d653dfd966e}; ! Name of Object 1

