
OS:Version,
  {40ed29b7-6ce8-470e-ab42-c25df7c79f6f}, ! Handle
  0.9.3;                                  ! Version Identifier

OS:SizingPeriod:DesignDay,
  {f122f6ab-fe31-4036-ae9d-2092017fe7ae}, ! Handle
  Knoxville Mcghee Tyson Ap Ann Clg 1% Condns DB=>MWB, ! Name
  32.3,                                   ! Maximum Dry-Bulb Temperature {C}
  10.4,                                   ! Daily Dry-Bulb Temperature Range {deltaC}
  23.3,                                   ! Humidity Indicating Conditions at Maximum Dry-Bulb {BasedOnField A3}
  97854,                                  ! Barometric Pressure {Pa}
  3.2,                                    ! Wind Speed {m/s}
  250,                                    ! Wind Direction {deg}
  0,                                      ! Sky Clearness
  0,                                      ! Rain Indicator
  0,                                      ! Snow Indicator
  21,                                     ! Day of Month
  7,                                      ! Month
  SummerDesignDay,                        ! Day Type
  0,                                      ! Daylight Saving Time Indicator
  Wetbulb,                                ! Humidity Indicating Type
  ,                                       ! Humidity Indicating Day Schedule Name
  DefaultMultipliers,                     ! Dry-Bulb Temperature Range Modifier Type
  ,                                       ! Dry-Bulb Temperature Range Modifier Schedule Name
  ASHRAETau,                              ! Solar Model Indicator
  ,                                       ! Beam Solar Day Schedule Name
  ,                                       ! Diffuse Solar Day Schedule Name
  0.547,                                  ! ASHRAE Taub {dimensionless}
  1.786;                                  ! ASHRAE Taud {dimensionless}

OS:ComponentData,
  {e3de342d-f3dc-44e6-8622-01d6d98a6d58}, ! Handle
  Component Data 1,                       ! Name
  {371f1576-eea3-4d03-a93d-e29e288b4eee}, ! UUID
  {55a64ed9-cd64-44ca-9e74-39372ece66f4}, ! Version UUID
  1366310512,                             ! Creation Timestamp
  1366310512,                             ! Version Timestamp
  {f122f6ab-fe31-4036-ae9d-2092017fe7ae}; ! Name of Object 1

