
OS:Version,
  {30d88cd6-2b87-4b39-8a0f-75c424715b7a}, ! Handle
  0.9.3;                                  ! Version Identifier

OS:SizingPeriod:DesignDay,
  {6871b657-d073-46f4-8b97-205deac1798e}, ! Handle
  Fayetteville Rgnl G Ann Clg 1% Condns DP=>MDB, ! Name
  27.6,                                   ! Maximum Dry-Bulb Temperature {C}
  10.4,                                   ! Daily Dry-Bulb Temperature Range {deltaC}
  24.1,                                   ! Humidity Indicating Conditions at Maximum Dry-Bulb {BasedOnField A3}
  100618,                                 ! Barometric Pressure {Pa}
  3.7,                                    ! Wind Speed {m/s}
  240,                                    ! Wind Direction {deg}
  0,                                      ! Sky Clearness
  0,                                      ! Rain Indicator
  0,                                      ! Snow Indicator
  21,                                     ! Day of Month
  7,                                      ! Month
  SummerDesignDay,                        ! Day Type
  0,                                      ! Daylight Saving Time Indicator
  Dewpoint,                               ! Humidity Indicating Type
  ,                                       ! Humidity Indicating Day Schedule Name
  DefaultMultipliers,                     ! Dry-Bulb Temperature Range Modifier Type
  ,                                       ! Dry-Bulb Temperature Range Modifier Schedule Name
  ASHRAETau,                              ! Solar Model Indicator
  ,                                       ! Beam Solar Day Schedule Name
  ,                                       ! Diffuse Solar Day Schedule Name
  0.584,                                  ! ASHRAE Taub {dimensionless}
  1.713;                                  ! ASHRAE Taud {dimensionless}

OS:ComponentData,
  {f0705edf-2ec8-4f69-99de-6cb103dd18c3}, ! Handle
  Component Data 1,                       ! Name
  {d085a429-238e-4932-b9d4-63e7efe56531}, ! UUID
  {88e883b2-61f9-4b62-ae80-323c16dc28e6}, ! Version UUID
  1366308916,                             ! Creation Timestamp
  1366308916,                             ! Version Timestamp
  {6871b657-d073-46f4-8b97-205deac1798e}; ! Name of Object 1

