
OS:Version,
  {24eaadc7-ed41-4812-9d5c-303f46d8f7d5}, ! Handle
  0.9.3;                                  ! Version Identifier

OS:SizingPeriod:DesignDay,
  {13442e66-4060-4734-847d-6c1039db2dbd}, ! Handle
  Dodge City Regional Ap Ann Clg .4% Condns DP=>MDB, ! Name
  26.5,                                   ! Maximum Dry-Bulb Temperature {C}
  13.9,                                   ! Daily Dry-Bulb Temperature Range {deltaC}
  21.3,                                   ! Humidity Indicating Conditions at Maximum Dry-Bulb {BasedOnField A3}
  92243,                                  ! Barometric Pressure {Pa}
  7.4,                                    ! Wind Speed {m/s}
  180,                                    ! Wind Direction {deg}
  0,                                      ! Sky Clearness
  0,                                      ! Rain Indicator
  0,                                      ! Snow Indicator
  21,                                     ! Day of Month
  7,                                      ! Month
  SummerDesignDay,                        ! Day Type
  0,                                      ! Daylight Saving Time Indicator
  Dewpoint,                               ! Humidity Indicating Type
  ,                                       ! Humidity Indicating Day Schedule Name
  DefaultMultipliers,                     ! Dry-Bulb Temperature Range Modifier Type
  ,                                       ! Dry-Bulb Temperature Range Modifier Schedule Name
  ASHRAETau,                              ! Solar Model Indicator
  ,                                       ! Beam Solar Day Schedule Name
  ,                                       ! Diffuse Solar Day Schedule Name
  0.419,                                  ! ASHRAE Taub {dimensionless}
  2.142;                                  ! ASHRAE Taud {dimensionless}

OS:ComponentData,
  {a8cc8c2a-ae2d-42c7-8580-f1ababdb99fb}, ! Handle
  Component Data 1,                       ! Name
  {f6ef0381-f036-4301-8492-ad5ffb9f38cd}, ! UUID
  {c3e2e3c1-0e6e-4d5f-b6e4-14a80d12667b}, ! Version UUID
  1366307518,                             ! Creation Timestamp
  1366307518,                             ! Version Timestamp
  {13442e66-4060-4734-847d-6c1039db2dbd}; ! Name of Object 1

