
OS:Version,
  {532e9fba-b07b-4e98-b8e5-cfdee57f796b}, ! Handle
  0.9.3;                                  ! Version Identifier

OS:SizingPeriod:DesignDay,
  {7bfea342-deaa-4a2f-9464-5359f7596465}, ! Handle
  Los Angeles Intl Arpt Ann Htg Wind 99% Condns WS=>MCDB, ! Name
  13.8,                                   ! Maximum Dry-Bulb Temperature {C}
  0,                                      ! Daily Dry-Bulb Temperature Range {deltaC}
  13.8,                                   ! Humidity Indicating Conditions at Maximum Dry-Bulb {BasedOnField A3}
  100965,                                 ! Barometric Pressure {Pa}
  9.1,                                    ! Wind Speed {m/s}
  90,                                     ! Wind Direction {deg}
  0,                                      ! Sky Clearness
  0,                                      ! Rain Indicator
  0,                                      ! Snow Indicator
  21,                                     ! Day of Month
  1,                                      ! Month
  WinterDesignDay,                        ! Day Type
  0,                                      ! Daylight Saving Time Indicator
  Wetbulb,                                ! Humidity Indicating Type
  ,                                       ! Humidity Indicating Day Schedule Name
  DefaultMultipliers,                     ! Dry-Bulb Temperature Range Modifier Type
  ,                                       ! Dry-Bulb Temperature Range Modifier Schedule Name
  ASHRAEClearSky;                         ! Solar Model Indicator

OS:ComponentData,
  {0fdc6b58-911c-4655-b429-0d00655191a0}, ! Handle
  Component Data 1,                       ! Name
  {49b8163d-e88d-459d-8110-4ea48394dfbf}, ! UUID
  {7128754b-f73b-4b23-894c-f4d2f42fd891}, ! Version UUID
  1366306483,                             ! Creation Timestamp
  1366306483,                             ! Version Timestamp
  {7bfea342-deaa-4a2f-9464-5359f7596465}; ! Name of Object 1

