
OS:Version,
  {3d615342-bf91-4655-a26b-696d89779712}, ! Handle
  0.9.3;                                  ! Version Identifier

OS:SizingPeriod:DesignDay,
  {d63e6bc4-2920-42c3-925f-c8c08ba39c0d}, ! Handle
  Del Rio Laughlin Afb Ann Clg 1% Condns Enth=>MDB, ! Name
  32.5,                                   ! Maximum Dry-Bulb Temperature {C}
  11.9,                                   ! Daily Dry-Bulb Temperature Range {deltaC}
  78300,                                  ! Humidity Indicating Conditions at Maximum Dry-Bulb {BasedOnField A3}
  97458,                                  ! Barometric Pressure {Pa}
  5.1,                                    ! Wind Speed {m/s}
  130,                                    ! Wind Direction {deg}
  0,                                      ! Sky Clearness
  0,                                      ! Rain Indicator
  0,                                      ! Snow Indicator
  21,                                     ! Day of Month
  7,                                      ! Month
  SummerDesignDay,                        ! Day Type
  0,                                      ! Daylight Saving Time Indicator
  Enthalpy,                               ! Humidity Indicating Type
  ,                                       ! Humidity Indicating Day Schedule Name
  DefaultMultipliers,                     ! Dry-Bulb Temperature Range Modifier Type
  ,                                       ! Dry-Bulb Temperature Range Modifier Schedule Name
  ASHRAETau,                              ! Solar Model Indicator
  ,                                       ! Beam Solar Day Schedule Name
  ,                                       ! Diffuse Solar Day Schedule Name
  0.473,                                  ! ASHRAE Taub {dimensionless}
  2.019;                                  ! ASHRAE Taud {dimensionless}

OS:ComponentData,
  {2d60a06f-08ab-4d92-92c3-132f5a53e996}, ! Handle
  Component Data 1,                       ! Name
  {e8b845f3-a21c-4c3c-9ae8-2a573a74c06b}, ! UUID
  {cdee7c56-f77f-44ff-bf80-2e7d22b9c59d}, ! Version UUID
  1366310669,                             ! Creation Timestamp
  1366310669,                             ! Version Timestamp
  {d63e6bc4-2920-42c3-925f-c8c08ba39c0d}; ! Name of Object 1

