
OS:Version,
  {caa7b5bb-11b8-441f-8787-335ad8fbcf44}, ! Handle
  0.9.3;                                  ! Version Identifier

OS:SizingPeriod:DesignDay,
  {364db782-2768-40e9-bcdd-d1e2e2c97403}, ! Handle
  Lovelock Derby Field Ann Clg 2% Condns WB=>MDB, ! Name
  31.1,                                   ! Maximum Dry-Bulb Temperature {C}
  20.2,                                   ! Daily Dry-Bulb Temperature Range {deltaC}
  16.9,                                   ! Humidity Indicating Conditions at Maximum Dry-Bulb {BasedOnField A3}
  87833,                                  ! Barometric Pressure {Pa}
  4.1,                                    ! Wind Speed {m/s}
  180,                                    ! Wind Direction {deg}
  0,                                      ! Sky Clearness
  0,                                      ! Rain Indicator
  0,                                      ! Snow Indicator
  21,                                     ! Day of Month
  7,                                      ! Month
  SummerDesignDay,                        ! Day Type
  0,                                      ! Daylight Saving Time Indicator
  Wetbulb,                                ! Humidity Indicating Type
  ,                                       ! Humidity Indicating Day Schedule Name
  DefaultMultipliers,                     ! Dry-Bulb Temperature Range Modifier Type
  ,                                       ! Dry-Bulb Temperature Range Modifier Schedule Name
  ASHRAETau,                              ! Solar Model Indicator
  ,                                       ! Beam Solar Day Schedule Name
  ,                                       ! Diffuse Solar Day Schedule Name
  0.427,                                  ! ASHRAE Taub {dimensionless}
  1.948;                                  ! ASHRAE Taud {dimensionless}

OS:ComponentData,
  {8dff8e86-275c-416a-a91f-57ecc8642db5}, ! Handle
  Component Data 1,                       ! Name
  {a6fc73bf-099b-4f37-83ae-ecad8ea92ed3}, ! UUID
  {55e6f31c-97f0-4abe-81bc-134f4960b252}, ! Version UUID
  1366309517,                             ! Creation Timestamp
  1366309517,                             ! Version Timestamp
  {364db782-2768-40e9-bcdd-d1e2e2c97403}; ! Name of Object 1

