
OS:Version,
  {142c9e18-b852-41d1-a93f-90aa30758b21}, ! Handle
  0.9.3;                                  ! Version Identifier

OS:SizingPeriod:DesignDay,
  {16eac420-cb54-4748-bf61-d9d2fce5d164}, ! Handle
  Flying Cloud Ann Clg 2% Condns DB=>MWB, ! Name
  29.1,                                   ! Maximum Dry-Bulb Temperature {C}
  10.1,                                   ! Daily Dry-Bulb Temperature Range {deltaC}
  21.9,                                   ! Humidity Indicating Conditions at Maximum Dry-Bulb {BasedOnField A3}
  97971,                                  ! Barometric Pressure {Pa}
  5.3,                                    ! Wind Speed {m/s}
  180,                                    ! Wind Direction {deg}
  0,                                      ! Sky Clearness
  0,                                      ! Rain Indicator
  0,                                      ! Snow Indicator
  21,                                     ! Day of Month
  7,                                      ! Month
  SummerDesignDay,                        ! Day Type
  0,                                      ! Daylight Saving Time Indicator
  Wetbulb,                                ! Humidity Indicating Type
  ,                                       ! Humidity Indicating Day Schedule Name
  DefaultMultipliers,                     ! Dry-Bulb Temperature Range Modifier Type
  ,                                       ! Dry-Bulb Temperature Range Modifier Schedule Name
  ASHRAETau,                              ! Solar Model Indicator
  ,                                       ! Beam Solar Day Schedule Name
  ,                                       ! Diffuse Solar Day Schedule Name
  0.416,                                  ! ASHRAE Taub {dimensionless}
  2.176;                                  ! ASHRAE Taud {dimensionless}

OS:ComponentData,
  {cc4baf8f-6a01-4366-9309-634d023b06f1}, ! Handle
  Component Data 1,                       ! Name
  {a3db7f56-4649-4e0b-a5b8-bc4eac0dcbdc}, ! UUID
  {f4013344-0a40-4184-80ee-001fb1a6f650}, ! Version UUID
  1366308211,                             ! Creation Timestamp
  1366308211,                             ! Version Timestamp
  {16eac420-cb54-4748-bf61-d9d2fce5d164}; ! Name of Object 1

