
OS:Version,
  {69ed1730-4182-4164-9a24-941f9e1c8262}, ! Handle
  0.9.3;                                  ! Version Identifier

OS:SizingPeriod:DesignDay,
  {6d0bf955-d88d-4268-83da-bac4f6eb8110}, ! Handle
  CAPE_HATTERAS Ann Htg Wind 99% Condns WS=>MCDB, ! Name
  12.3,                                   ! Maximum Dry-Bulb Temperature {C}
  0,                                      ! Daily Dry-Bulb Temperature Range {deltaC}
  12.3,                                   ! Humidity Indicating Conditions at Maximum Dry-Bulb {BasedOnField A3}
  101301,                                 ! Barometric Pressure {Pa}
  11.3,                                   ! Wind Speed {m/s}
  0,                                      ! Wind Direction {deg}
  0,                                      ! Sky Clearness
  0,                                      ! Rain Indicator
  0,                                      ! Snow Indicator
  21,                                     ! Day of Month
  1,                                      ! Month
  WinterDesignDay,                        ! Day Type
  0,                                      ! Daylight Saving Time Indicator
  Wetbulb,                                ! Humidity Indicating Type
  ,                                       ! Humidity Indicating Day Schedule Name
  DefaultMultipliers,                     ! Dry-Bulb Temperature Range Modifier Type
  ,                                       ! Dry-Bulb Temperature Range Modifier Schedule Name
  ASHRAEClearSky;                         ! Solar Model Indicator

OS:ComponentData,
  {554d0c87-51f2-408d-8b5a-2206de7c1c8e}, ! Handle
  Component Data 1,                       ! Name
  {5271702b-e398-4110-bf02-63a0bd6d33a1}, ! UUID
  {af1baf9a-1f63-49a0-b635-bd04e69353bf}, ! Version UUID
  1366308876,                             ! Creation Timestamp
  1366308876,                             ! Version Timestamp
  {6d0bf955-d88d-4268-83da-bac4f6eb8110}; ! Name of Object 1

