
OS:Version,
  {6dc9893c-6218-45e4-bd8b-547deea1400e}, ! Handle
  0.9.3;                                  ! Version Identifier

OS:SizingPeriod:DesignDay,
  {23b3028d-4283-463b-b510-2c00b31c6116}, ! Handle
  Bar Harbor  Awos Ann Htg Wind 99.6% Condns WS=>MCDB, ! Name
  8.5,                                    ! Maximum Dry-Bulb Temperature {C}
  0,                                      ! Daily Dry-Bulb Temperature Range {deltaC}
  8.5,                                    ! Humidity Indicating Conditions at Maximum Dry-Bulb {BasedOnField A3}
  101013,                                 ! Barometric Pressure {Pa}
  14.9,                                   ! Wind Speed {m/s}
  310,                                    ! Wind Direction {deg}
  0,                                      ! Sky Clearness
  0,                                      ! Rain Indicator
  0,                                      ! Snow Indicator
  21,                                     ! Day of Month
  1,                                      ! Month
  WinterDesignDay,                        ! Day Type
  0,                                      ! Daylight Saving Time Indicator
  Wetbulb,                                ! Humidity Indicating Type
  ,                                       ! Humidity Indicating Day Schedule Name
  DefaultMultipliers,                     ! Dry-Bulb Temperature Range Modifier Type
  ,                                       ! Dry-Bulb Temperature Range Modifier Schedule Name
  ASHRAEClearSky;                         ! Solar Model Indicator

