
OS:Version,
  {d9c4e265-5e67-4a8f-8c15-785dec227eac}, ! Handle
  0.9.3;                                  ! Version Identifier

OS:SizingPeriod:DesignDay,
  {7aa9390e-c214-40a1-85e0-b15a3de5e2bc}, ! Handle
  Cahokia St  Louis Ann Htg Wind 99.6% Condns WS=>MCDB, ! Name
  1.8,                                    ! Maximum Dry-Bulb Temperature {C}
  0,                                      ! Daily Dry-Bulb Temperature Range {deltaC}
  1.8,                                    ! Humidity Indicating Conditions at Maximum Dry-Bulb {BasedOnField A3}
  99820,                                  ! Barometric Pressure {Pa}
  10.9,                                   ! Wind Speed {m/s}
  290,                                    ! Wind Direction {deg}
  0,                                      ! Sky Clearness
  0,                                      ! Rain Indicator
  0,                                      ! Snow Indicator
  21,                                     ! Day of Month
  1,                                      ! Month
  WinterDesignDay,                        ! Day Type
  0,                                      ! Daylight Saving Time Indicator
  Wetbulb,                                ! Humidity Indicating Type
  ,                                       ! Humidity Indicating Day Schedule Name
  DefaultMultipliers,                     ! Dry-Bulb Temperature Range Modifier Type
  ,                                       ! Dry-Bulb Temperature Range Modifier Schedule Name
  ASHRAEClearSky;                         ! Solar Model Indicator

OS:ComponentData,
  {b2bb94ed-22b4-4d9b-b6a5-c2abc77da9fc}, ! Handle
  Component Data 1,                       ! Name
  {fb10b16e-bb34-4163-8be3-ada16807f782}, ! UUID
  {3c58755b-e446-46bd-9fff-a06939923746}, ! Version UUID
  1366307327,                             ! Creation Timestamp
  1366307327,                             ! Version Timestamp
  {7aa9390e-c214-40a1-85e0-b15a3de5e2bc}; ! Name of Object 1

