
OS:Version,
  {34308bc3-7d6c-452f-9445-c94d4057dbcb}, ! Handle
  0.9.3;                                  ! Version Identifier

OS:SizingPeriod:DesignDay,
  {fb3ddcb4-145f-4dab-847f-5638cee3377f}, ! Handle
  Bridgeport Sikorsky Memorial Ann Clg .4% Condns Enth=>MDB, ! Name
  28.4,                                   ! Maximum Dry-Bulb Temperature {C}
  7.6,                                    ! Daily Dry-Bulb Temperature Range {deltaC}
  73600,                                  ! Humidity Indicating Conditions at Maximum Dry-Bulb {BasedOnField A3}
  101289,                                 ! Barometric Pressure {Pa}
  4.8,                                    ! Wind Speed {m/s}
  240,                                    ! Wind Direction {deg}
  0,                                      ! Sky Clearness
  0,                                      ! Rain Indicator
  0,                                      ! Snow Indicator
  21,                                     ! Day of Month
  7,                                      ! Month
  SummerDesignDay,                        ! Day Type
  0,                                      ! Daylight Saving Time Indicator
  Enthalpy,                               ! Humidity Indicating Type
  ,                                       ! Humidity Indicating Day Schedule Name
  DefaultMultipliers,                     ! Dry-Bulb Temperature Range Modifier Type
  ,                                       ! Dry-Bulb Temperature Range Modifier Schedule Name
  ASHRAETau,                              ! Solar Model Indicator
  ,                                       ! Beam Solar Day Schedule Name
  ,                                       ! Diffuse Solar Day Schedule Name
  0.516,                                  ! ASHRAE Taub {dimensionless}
  1.863;                                  ! ASHRAE Taud {dimensionless}

OS:ComponentData,
  {e97aa2b4-0e4a-4a93-948b-a5cd0e2eafcb}, ! Handle
  Component Data 1,                       ! Name
  {2d005af6-cd53-41c5-90c1-56fb6e239603}, ! UUID
  {199ca1de-48a5-44de-b9d1-bc916016449b}, ! Version UUID
  1366306746,                             ! Creation Timestamp
  1366306746,                             ! Version Timestamp
  {fb3ddcb4-145f-4dab-847f-5638cee3377f}; ! Name of Object 1

