
OS:Version,
  {a96cc0ff-b5b9-4700-a51d-783e6daeb047}, ! Handle
  0.9.3;                                  ! Version Identifier

OS:SizingPeriod:DesignDay,
  {e3da8c53-2f49-451f-9385-ed118074c775}, ! Handle
  Dubuque Regional Ap Ann Clg 2% Condns DP=>MDB, ! Name
  25.9,                                   ! Maximum Dry-Bulb Temperature {C}
  10.2,                                   ! Daily Dry-Bulb Temperature Range {deltaC}
  21.9,                                   ! Humidity Indicating Conditions at Maximum Dry-Bulb {BasedOnField A3}
  97516,                                  ! Barometric Pressure {Pa}
  5.2,                                    ! Wind Speed {m/s}
  190,                                    ! Wind Direction {deg}
  0,                                      ! Sky Clearness
  0,                                      ! Rain Indicator
  0,                                      ! Snow Indicator
  21,                                     ! Day of Month
  7,                                      ! Month
  SummerDesignDay,                        ! Day Type
  0,                                      ! Daylight Saving Time Indicator
  Dewpoint,                               ! Humidity Indicating Type
  ,                                       ! Humidity Indicating Day Schedule Name
  DefaultMultipliers,                     ! Dry-Bulb Temperature Range Modifier Type
  ,                                       ! Dry-Bulb Temperature Range Modifier Schedule Name
  ASHRAETau,                              ! Solar Model Indicator
  ,                                       ! Beam Solar Day Schedule Name
  ,                                       ! Diffuse Solar Day Schedule Name
  0.433,                                  ! ASHRAE Taub {dimensionless}
  2.117;                                  ! ASHRAE Taud {dimensionless}

OS:ComponentData,
  {3acda722-df67-4fe8-841a-7beb41188146}, ! Handle
  Component Data 1,                       ! Name
  {0b21dee1-fc9a-4956-be52-5afd036e61e1}, ! UUID
  {771fccfb-8709-457b-9f73-1b3592465e8f}, ! Version UUID
  1366307185,                             ! Creation Timestamp
  1366307185,                             ! Version Timestamp
  {e3da8c53-2f49-451f-9385-ed118074c775}; ! Name of Object 1

