
OS:Version,
  {e55812a7-af65-4504-8ce6-6754fd4247d1}, ! Handle
  0.9.3;                                  ! Version Identifier

OS:SizingPeriod:DesignDay,
  {10709a2f-a758-4123-87ab-43e2f1d4d3db}, ! Handle
  COLD_BAY Ann Clg 1% Condns Enth=>MDB,   ! Name
  13.6,                                   ! Maximum Dry-Bulb Temperature {C}
  4.4,                                    ! Daily Dry-Bulb Temperature Range {deltaC}
  35300,                                  ! Humidity Indicating Conditions at Maximum Dry-Bulb {BasedOnField A3}
  100977,                                 ! Barometric Pressure {Pa}
  7,                                      ! Wind Speed {m/s}
  150,                                    ! Wind Direction {deg}
  0,                                      ! Sky Clearness
  0,                                      ! Rain Indicator
  0,                                      ! Snow Indicator
  21,                                     ! Day of Month
  8,                                      ! Month
  SummerDesignDay,                        ! Day Type
  0,                                      ! Daylight Saving Time Indicator
  Enthalpy,                               ! Humidity Indicating Type
  ,                                       ! Humidity Indicating Day Schedule Name
  DefaultMultipliers,                     ! Dry-Bulb Temperature Range Modifier Type
  ,                                       ! Dry-Bulb Temperature Range Modifier Schedule Name
  ASHRAETau,                              ! Solar Model Indicator
  ,                                       ! Beam Solar Day Schedule Name
  ,                                       ! Diffuse Solar Day Schedule Name
  0.383,                                  ! ASHRAE Taub {dimensionless}
  2.26;                                   ! ASHRAE Taud {dimensionless}

