
OS:Version,
  {10cb538d-b899-47e0-919c-69894251ccdc}, ! Handle
  0.9.3;                                  ! Version Identifier

OS:SizingPeriod:DesignDay,
  {18c7d88b-ecc9-4d84-b4bf-a4fa8f5b65ae}, ! Handle
  Duluth Ann Hum_n 99.6% Condns DP=>MCDB, ! Name
  -27.9,                                  ! Maximum Dry-Bulb Temperature {C}
  0,                                      ! Daily Dry-Bulb Temperature Range {deltaC}
  -33.1,                                  ! Humidity Indicating Conditions at Maximum Dry-Bulb {BasedOnField A3}
  96242,                                  ! Barometric Pressure {Pa}
  4.6,                                    ! Wind Speed {m/s}
  310,                                    ! Wind Direction {deg}
  0,                                      ! Sky Clearness
  0,                                      ! Rain Indicator
  0,                                      ! Snow Indicator
  21,                                     ! Day of Month
  1,                                      ! Month
  WinterDesignDay,                        ! Day Type
  0,                                      ! Daylight Saving Time Indicator
  Dewpoint,                               ! Humidity Indicating Type
  ,                                       ! Humidity Indicating Day Schedule Name
  DefaultMultipliers,                     ! Dry-Bulb Temperature Range Modifier Type
  ,                                       ! Dry-Bulb Temperature Range Modifier Schedule Name
  ASHRAEClearSky;                         ! Solar Model Indicator

OS:ComponentData,
  {57bd2fe8-189b-4782-a76d-e8131055031a}, ! Handle
  Component Data 1,                       ! Name
  {e85c8110-7a85-456d-9c60-3de3d9d2de28}, ! UUID
  {123ecf18-52e4-494c-b4be-cb4b4df0c50c}, ! Version UUID
  1366308202,                             ! Creation Timestamp
  1366308202,                             ! Version Timestamp
  {18c7d88b-ecc9-4d84-b4bf-a4fa8f5b65ae}; ! Name of Object 1

