
OS:Version,
  {8e11d425-fb8e-4c65-bd97-7f0d65ec350f}, ! Handle
  0.9.3;                                  ! Version Identifier

OS:SizingPeriod:DesignDay,
  {1ae72957-81a2-4ea5-805b-4e9c76b5aa32}, ! Handle
  Creston Ann Clg 2% Condns DB=>MWB,      ! Name
  31.1,                                   ! Maximum Dry-Bulb Temperature {C}
  10.2,                                   ! Daily Dry-Bulb Temperature Range {deltaC}
  23.7,                                   ! Humidity Indicating Conditions at Maximum Dry-Bulb {BasedOnField A3}
  96680,                                  ! Barometric Pressure {Pa}
  5,                                      ! Wind Speed {m/s}
  200,                                    ! Wind Direction {deg}
  0,                                      ! Sky Clearness
  0,                                      ! Rain Indicator
  0,                                      ! Snow Indicator
  21,                                     ! Day of Month
  7,                                      ! Month
  SummerDesignDay,                        ! Day Type
  0,                                      ! Daylight Saving Time Indicator
  Wetbulb,                                ! Humidity Indicating Type
  ,                                       ! Humidity Indicating Day Schedule Name
  DefaultMultipliers,                     ! Dry-Bulb Temperature Range Modifier Type
  ,                                       ! Dry-Bulb Temperature Range Modifier Schedule Name
  ASHRAETau,                              ! Solar Model Indicator
  ,                                       ! Beam Solar Day Schedule Name
  ,                                       ! Diffuse Solar Day Schedule Name
  0.417,                                  ! ASHRAE Taub {dimensionless}
  2.197;                                  ! ASHRAE Taud {dimensionless}

OS:ComponentData,
  {fc0b4d7c-b481-4461-b97a-c9e4a4da9621}, ! Handle
  Component Data 1,                       ! Name
  {1fb2663c-c635-44cb-8245-35181a34a992}, ! UUID
  {f27b7173-a938-4864-a38f-224f4c798f40}, ! Version UUID
  1366307164,                             ! Creation Timestamp
  1366307164,                             ! Version Timestamp
  {1ae72957-81a2-4ea5-805b-4e9c76b5aa32}; ! Name of Object 1

