
OS:Version,
  {ee2ba158-d63d-453d-acad-056040713f2a}, ! Handle
  0.9.3;                                  ! Version Identifier

OS:SizingPeriod:DesignDay,
  {2156f054-8389-4792-b510-4983b148f466}, ! Handle
  Escanaba  Awos Ann Clg .4% Condns DP=>MDB, ! Name
  24.9,                                   ! Maximum Dry-Bulb Temperature {C}
  10.1,                                   ! Daily Dry-Bulb Temperature Range {deltaC}
  21.4,                                   ! Humidity Indicating Conditions at Maximum Dry-Bulb {BasedOnField A3}
  99099,                                  ! Barometric Pressure {Pa}
  5.1,                                    ! Wind Speed {m/s}
  190,                                    ! Wind Direction {deg}
  0,                                      ! Sky Clearness
  0,                                      ! Rain Indicator
  0,                                      ! Snow Indicator
  21,                                     ! Day of Month
  7,                                      ! Month
  SummerDesignDay,                        ! Day Type
  0,                                      ! Daylight Saving Time Indicator
  Dewpoint,                               ! Humidity Indicating Type
  ,                                       ! Humidity Indicating Day Schedule Name
  DefaultMultipliers,                     ! Dry-Bulb Temperature Range Modifier Type
  ,                                       ! Dry-Bulb Temperature Range Modifier Schedule Name
  ASHRAETau,                              ! Solar Model Indicator
  ,                                       ! Beam Solar Day Schedule Name
  ,                                       ! Diffuse Solar Day Schedule Name
  0.425,                                  ! ASHRAE Taub {dimensionless}
  2.15;                                   ! ASHRAE Taud {dimensionless}

OS:ComponentData,
  {c1acef77-d26b-4ce8-90a7-06e414d2f082}, ! Handle
  Component Data 1,                       ! Name
  {4c0bfdc8-d844-427d-8595-0913af8ee671}, ! UUID
  {19d58739-dee8-43b0-afe6-7bb4ce8a14e6}, ! Version UUID
  1366307992,                             ! Creation Timestamp
  1366307992,                             ! Version Timestamp
  {2156f054-8389-4792-b510-4983b148f466}; ! Name of Object 1

