
OS:Version,
  {443cdd71-7490-4170-b7aa-72b0fa5a74bf}, ! Handle
  0.9.3;                                  ! Version Identifier

OS:SizingPeriod:DesignDay,
  {1c6d41ab-038b-468b-8e25-37f0d5fde90a}, ! Handle
  Findlay Airport Ann Htg Wind 99% Condns WS=>MCDB, ! Name
  -0.4,                                   ! Maximum Dry-Bulb Temperature {C}
  0,                                      ! Daily Dry-Bulb Temperature Range {deltaC}
  -0.4,                                   ! Humidity Indicating Conditions at Maximum Dry-Bulb {BasedOnField A3}
  98428,                                  ! Barometric Pressure {Pa}
  11.4,                                   ! Wind Speed {m/s}
  250,                                    ! Wind Direction {deg}
  0,                                      ! Sky Clearness
  0,                                      ! Rain Indicator
  0,                                      ! Snow Indicator
  21,                                     ! Day of Month
  1,                                      ! Month
  WinterDesignDay,                        ! Day Type
  0,                                      ! Daylight Saving Time Indicator
  Wetbulb,                                ! Humidity Indicating Type
  ,                                       ! Humidity Indicating Day Schedule Name
  DefaultMultipliers,                     ! Dry-Bulb Temperature Range Modifier Type
  ,                                       ! Dry-Bulb Temperature Range Modifier Schedule Name
  ASHRAEClearSky;                         ! Solar Model Indicator

OS:ComponentData,
  {5e7bf177-928c-4a5c-b71b-4d06bffe81b2}, ! Handle
  Component Data 1,                       ! Name
  {4b7dbbf0-1c54-4a0d-809d-265dd2a80d51}, ! UUID
  {1ed48ba9-4276-4593-a24a-b7755bae6123}, ! Version UUID
  1366309825,                             ! Creation Timestamp
  1366309825,                             ! Version Timestamp
  {1c6d41ab-038b-468b-8e25-37f0d5fde90a}; ! Name of Object 1

