
OS:Version,
  {1e626d25-2d61-44ce-9d23-87d19e2bbf0d}, ! Handle
  0.9.3;                                  ! Version Identifier

OS:SizingPeriod:DesignDay,
  {5d93b8be-4333-4e9e-a1b0-2be2af5f87bc}, ! Handle
  Franklin Ann Clg 2% Condns Enth=>MDB,   ! Name
  25.1,                                   ! Maximum Dry-Bulb Temperature {C}
  10.1,                                   ! Daily Dry-Bulb Temperature Range {deltaC}
  64800,                                  ! Humidity Indicating Conditions at Maximum Dry-Bulb {BasedOnField A3}
  95805,                                  ! Barometric Pressure {Pa}
  3.5,                                    ! Wind Speed {m/s}
  200,                                    ! Wind Direction {deg}
  0,                                      ! Sky Clearness
  0,                                      ! Rain Indicator
  0,                                      ! Snow Indicator
  21,                                     ! Day of Month
  7,                                      ! Month
  SummerDesignDay,                        ! Day Type
  0,                                      ! Daylight Saving Time Indicator
  Enthalpy,                               ! Humidity Indicating Type
  ,                                       ! Humidity Indicating Day Schedule Name
  DefaultMultipliers,                     ! Dry-Bulb Temperature Range Modifier Type
  ,                                       ! Dry-Bulb Temperature Range Modifier Schedule Name
  ASHRAETau,                              ! Solar Model Indicator
  ,                                       ! Beam Solar Day Schedule Name
  ,                                       ! Diffuse Solar Day Schedule Name
  0.434,                                  ! ASHRAE Taub {dimensionless}
  2.094;                                  ! ASHRAE Taud {dimensionless}

OS:ComponentData,
  {89733e1e-b264-4fba-b324-2a2cbe0ec9b3}, ! Handle
  Component Data 1,                       ! Name
  {b7893bc3-5b4e-4748-8c61-601a4219f8be}, ! UUID
  {3badb099-1513-43a8-8e97-c6c6ef68ba34}, ! Version UUID
  1366310180,                             ! Creation Timestamp
  1366310180,                             ! Version Timestamp
  {5d93b8be-4333-4e9e-a1b0-2be2af5f87bc}; ! Name of Object 1

