
OS:Version,
  {24e15e1f-86be-43d9-ac26-7d27bdc03dd3}, ! Handle
  0.9.3;                                  ! Version Identifier

OS:SizingPeriod:DesignDay,
  {4e48fe5b-f808-471b-9a28-434eed892222}, ! Handle
  LUFKIN Ann Clg 2% Condns Enth=>MDB,     ! Name
  31.5,                                   ! Maximum Dry-Bulb Temperature {C}
  11.4,                                   ! Daily Dry-Bulb Temperature Range {deltaC}
  80000,                                  ! Humidity Indicating Conditions at Maximum Dry-Bulb {BasedOnField A3}
  100177,                                 ! Barometric Pressure {Pa}
  3.4,                                    ! Wind Speed {m/s}
  200,                                    ! Wind Direction {deg}
  0,                                      ! Sky Clearness
  0,                                      ! Rain Indicator
  0,                                      ! Snow Indicator
  21,                                     ! Day of Month
  7,                                      ! Month
  SummerDesignDay,                        ! Day Type
  0,                                      ! Daylight Saving Time Indicator
  Enthalpy,                               ! Humidity Indicating Type
  ,                                       ! Humidity Indicating Day Schedule Name
  DefaultMultipliers,                     ! Dry-Bulb Temperature Range Modifier Type
  ,                                       ! Dry-Bulb Temperature Range Modifier Schedule Name
  ASHRAETau,                              ! Solar Model Indicator
  ,                                       ! Beam Solar Day Schedule Name
  ,                                       ! Diffuse Solar Day Schedule Name
  0.491,                                  ! ASHRAE Taub {dimensionless}
  2.003;                                  ! ASHRAE Taud {dimensionless}

