
OS:Version,
  {16a45a3b-4f01-4974-88a2-baec2a3c60f3}, ! Handle
  0.9.3;                                  ! Version Identifier

OS:SizingPeriod:DesignDay,
  {6494ff78-06ad-46e3-9277-f7005ac479cc}, ! Handle
  Kaiser Mem  Awos Ann Hum_n 99% Condns DP=>MCDB, ! Name
  -9.1,                                   ! Maximum Dry-Bulb Temperature {C}
  0,                                      ! Daily Dry-Bulb Temperature Range {deltaC}
  -17.3,                                  ! Humidity Indicating Conditions at Maximum Dry-Bulb {BasedOnField A3}
  98182,                                  ! Barometric Pressure {Pa}
  2.5,                                    ! Wind Speed {m/s}
  340,                                    ! Wind Direction {deg}
  0,                                      ! Sky Clearness
  0,                                      ! Rain Indicator
  0,                                      ! Snow Indicator
  21,                                     ! Day of Month
  1,                                      ! Month
  WinterDesignDay,                        ! Day Type
  0,                                      ! Daylight Saving Time Indicator
  Dewpoint,                               ! Humidity Indicating Type
  ,                                       ! Humidity Indicating Day Schedule Name
  DefaultMultipliers,                     ! Dry-Bulb Temperature Range Modifier Type
  ,                                       ! Dry-Bulb Temperature Range Modifier Schedule Name
  ASHRAEClearSky;                         ! Solar Model Indicator

OS:ComponentData,
  {d477d388-d238-4bec-ae31-fe17a126e767}, ! Handle
  Component Data 1,                       ! Name
  {970e01c1-de96-4176-9452-4ebf091e7d44}, ! UUID
  {8aaf41a6-e908-4e58-99f4-a579b0b4c028}, ! Version UUID
  1366308513,                             ! Creation Timestamp
  1366308513,                             ! Version Timestamp
  {6494ff78-06ad-46e3-9277-f7005ac479cc}; ! Name of Object 1

