
OS:Version,
  {01dac2ee-4f23-4905-b4b2-cf6668613ffb}, ! Handle
  0.9.3;                                  ! Version Identifier

OS:SizingPeriod:DesignDay,
  {c209573c-f1a0-4043-a5e2-3fbdbbb95da3}, ! Handle
  Antigo Lang Awos Ann Htg Wind 99% Condns WS=>MCDB, ! Name
  -6.7,                                   ! Maximum Dry-Bulb Temperature {C}
  0,                                      ! Daily Dry-Bulb Temperature Range {deltaC}
  -6.7,                                   ! Humidity Indicating Conditions at Maximum Dry-Bulb {BasedOnField A3}
  95874,                                  ! Barometric Pressure {Pa}
  9.5,                                    ! Wind Speed {m/s}
  290,                                    ! Wind Direction {deg}
  0,                                      ! Sky Clearness
  0,                                      ! Rain Indicator
  0,                                      ! Snow Indicator
  21,                                     ! Day of Month
  1,                                      ! Month
  WinterDesignDay,                        ! Day Type
  0,                                      ! Daylight Saving Time Indicator
  Wetbulb,                                ! Humidity Indicating Type
  ,                                       ! Humidity Indicating Day Schedule Name
  DefaultMultipliers,                     ! Dry-Bulb Temperature Range Modifier Type
  ,                                       ! Dry-Bulb Temperature Range Modifier Schedule Name
  ASHRAEClearSky;                         ! Solar Model Indicator

OS:ComponentData,
  {b8e578ba-5dbd-418b-8ca1-937d51f96f42}, ! Handle
  Component Data 1,                       ! Name
  {1b0ad91c-640c-4997-89ef-e88628fe4992}, ! UUID
  {4f8ad865-08b4-4835-a434-e666f827577e}, ! Version UUID
  1366311478,                             ! Creation Timestamp
  1366311478,                             ! Version Timestamp
  {c209573c-f1a0-4043-a5e2-3fbdbbb95da3}; ! Name of Object 1

