
OS:Version,
  {01ebaa4b-cc25-49a6-b632-b43ee8cb6cd7}, ! Handle
  0.9.3;                                  ! Version Identifier

OS:SizingPeriod:DesignDay,
  {0a1a4561-5f40-4e50-82b2-4f60941bb0f6}, ! Handle
  Clayton Municipal Airpark Ann Clg 1% Condns WB=>MDB, ! Name
  28.5,                                   ! Maximum Dry-Bulb Temperature {C}
  14.7,                                   ! Daily Dry-Bulb Temperature Range {deltaC}
  19,                                     ! Humidity Indicating Conditions at Maximum Dry-Bulb {BasedOnField A3}
  84431,                                  ! Barometric Pressure {Pa}
  6.2,                                    ! Wind Speed {m/s}
  190,                                    ! Wind Direction {deg}
  0,                                      ! Sky Clearness
  0,                                      ! Rain Indicator
  0,                                      ! Snow Indicator
  21,                                     ! Day of Month
  7,                                      ! Month
  SummerDesignDay,                        ! Day Type
  0,                                      ! Daylight Saving Time Indicator
  Wetbulb,                                ! Humidity Indicating Type
  ,                                       ! Humidity Indicating Day Schedule Name
  DefaultMultipliers,                     ! Dry-Bulb Temperature Range Modifier Type
  ,                                       ! Dry-Bulb Temperature Range Modifier Schedule Name
  ASHRAETau,                              ! Solar Model Indicator
  ,                                       ! Beam Solar Day Schedule Name
  ,                                       ! Diffuse Solar Day Schedule Name
  0.399,                                  ! ASHRAE Taub {dimensionless}
  2.129;                                  ! ASHRAE Taud {dimensionless}

OS:ComponentData,
  {d5efa502-8835-43ee-b8a7-185f606489e6}, ! Handle
  Component Data 1,                       ! Name
  {c13eaf40-e9a8-410d-9bff-614413c76971}, ! UUID
  {8694fd71-06aa-4137-a7ba-211100810551}, ! Version UUID
  1366309386,                             ! Creation Timestamp
  1366309386,                             ! Version Timestamp
  {0a1a4561-5f40-4e50-82b2-4f60941bb0f6}; ! Name of Object 1

