
OS:Version,
  {0e0c9fb1-f44a-4fc3-8768-115e05b6751c}, ! Handle
  0.9.3;                                  ! Version Identifier

OS:SizingPeriod:DesignDay,
  {2642a996-48f5-45c4-b1f9-3aa9340f330e}, ! Handle
  Bismarck Municipal Arpt  Isis Ann Hum_n 99% Condns DP=>MCDB, ! Name
  -25.2,                                  ! Maximum Dry-Bulb Temperature {C}
  0,                                      ! Daily Dry-Bulb Temperature Range {deltaC}
  -29.4,                                  ! Humidity Indicating Conditions at Maximum Dry-Bulb {BasedOnField A3}
  95438,                                  ! Barometric Pressure {Pa}
  3.7,                                    ! Wind Speed {m/s}
  320,                                    ! Wind Direction {deg}
  0,                                      ! Sky Clearness
  0,                                      ! Rain Indicator
  0,                                      ! Snow Indicator
  21,                                     ! Day of Month
  1,                                      ! Month
  WinterDesignDay,                        ! Day Type
  0,                                      ! Daylight Saving Time Indicator
  Dewpoint,                               ! Humidity Indicating Type
  ,                                       ! Humidity Indicating Day Schedule Name
  DefaultMultipliers,                     ! Dry-Bulb Temperature Range Modifier Type
  ,                                       ! Dry-Bulb Temperature Range Modifier Schedule Name
  ASHRAEClearSky;                         ! Solar Model Indicator

OS:ComponentData,
  {a99655df-c35f-4be9-bd89-976da0af70ab}, ! Handle
  Component Data 1,                       ! Name
  {80728c1e-e4f0-4fd1-b326-537066e12b63}, ! UUID
  {59321b43-99db-416f-8861-c575c8a441bb}, ! Version UUID
  1366309006,                             ! Creation Timestamp
  1366309006,                             ! Version Timestamp
  {2642a996-48f5-45c4-b1f9-3aa9340f330e}; ! Name of Object 1

