
OS:Version,
  {42075f0f-5dfd-42ad-ab44-b99a115f866a}, ! Handle
  0.9.3;                                  ! Version Identifier

OS:SizingPeriod:DesignDay,
  {5a8fc1ae-6136-41ab-be1c-15235e7ec3d0}, ! Handle
  Glasgow Ann Clg 1% Condns Enth=>MDB,    ! Name
  28.8,                                   ! Maximum Dry-Bulb Temperature {C}
  14.5,                                   ! Daily Dry-Bulb Temperature Range {deltaC}
  57600,                                  ! Humidity Indicating Conditions at Maximum Dry-Bulb {BasedOnField A3}
  93194,                                  ! Barometric Pressure {Pa}
  5.4,                                    ! Wind Speed {m/s}
  150,                                    ! Wind Direction {deg}
  0,                                      ! Sky Clearness
  0,                                      ! Rain Indicator
  0,                                      ! Snow Indicator
  21,                                     ! Day of Month
  7,                                      ! Month
  SummerDesignDay,                        ! Day Type
  0,                                      ! Daylight Saving Time Indicator
  Enthalpy,                               ! Humidity Indicating Type
  ,                                       ! Humidity Indicating Day Schedule Name
  DefaultMultipliers,                     ! Dry-Bulb Temperature Range Modifier Type
  ,                                       ! Dry-Bulb Temperature Range Modifier Schedule Name
  ASHRAETau,                              ! Solar Model Indicator
  ,                                       ! Beam Solar Day Schedule Name
  ,                                       ! Diffuse Solar Day Schedule Name
  0.424,                                  ! ASHRAE Taub {dimensionless}
  2.044;                                  ! ASHRAE Taud {dimensionless}

