
OS:Version,
  {5496b3d3-75a7-418c-aac1-40f817d24f9e}, ! Handle
  0.9.3;                                  ! Version Identifier

OS:SizingPeriod:DesignDay,
  {e77bcfe0-e0d4-450f-9646-ecf30e18f031}, ! Handle
  Hays Muni  Awos Ann Clg 2% Condns DB=>MWB, ! Name
  34.8,                                   ! Maximum Dry-Bulb Temperature {C}
  14.1,                                   ! Daily Dry-Bulb Temperature Range {deltaC}
  21.2,                                   ! Humidity Indicating Conditions at Maximum Dry-Bulb {BasedOnField A3}
  94220,                                  ! Barometric Pressure {Pa}
  7.9,                                    ! Wind Speed {m/s}
  190,                                    ! Wind Direction {deg}
  0,                                      ! Sky Clearness
  0,                                      ! Rain Indicator
  0,                                      ! Snow Indicator
  21,                                     ! Day of Month
  7,                                      ! Month
  SummerDesignDay,                        ! Day Type
  0,                                      ! Daylight Saving Time Indicator
  Wetbulb,                                ! Humidity Indicating Type
  ,                                       ! Humidity Indicating Day Schedule Name
  DefaultMultipliers,                     ! Dry-Bulb Temperature Range Modifier Type
  ,                                       ! Dry-Bulb Temperature Range Modifier Schedule Name
  ASHRAETau,                              ! Solar Model Indicator
  ,                                       ! Beam Solar Day Schedule Name
  ,                                       ! Diffuse Solar Day Schedule Name
  0.433,                                  ! ASHRAE Taub {dimensionless}
  2.099;                                  ! ASHRAE Taud {dimensionless}

OS:ComponentData,
  {42792d78-e679-4bb3-9565-f1333d3e4997}, ! Handle
  Component Data 1,                       ! Name
  {b5b3792f-c299-4187-ba00-2855b176a640}, ! UUID
  {306277b8-fb9b-4829-877c-7cd04a916407}, ! Version UUID
  1366307545,                             ! Creation Timestamp
  1366307545,                             ! Version Timestamp
  {e77bcfe0-e0d4-450f-9646-ecf30e18f031}; ! Name of Object 1

