
OS:Version,
  {99474c54-a6b4-4178-b28a-4b1225938075}, ! Handle
  0.9.3;                                  ! Version Identifier

OS:SizingPeriod:DesignDay,
  {028878a2-e8a0-4aa5-bd37-c34e80a05447}, ! Handle
  Crane Lake  Awos Ann Clg 1% Condns Enth=>MDB, ! Name
  26.5,                                   ! Maximum Dry-Bulb Temperature {C}
  12,                                     ! Daily Dry-Bulb Temperature Range {deltaC}
  64600,                                  ! Humidity Indicating Conditions at Maximum Dry-Bulb {BasedOnField A3}
  97190,                                  ! Barometric Pressure {Pa}
  2.5,                                    ! Wind Speed {m/s}
  180,                                    ! Wind Direction {deg}
  0,                                      ! Sky Clearness
  0,                                      ! Rain Indicator
  0,                                      ! Snow Indicator
  21,                                     ! Day of Month
  7,                                      ! Month
  SummerDesignDay,                        ! Day Type
  0,                                      ! Daylight Saving Time Indicator
  Enthalpy,                               ! Humidity Indicating Type
  ,                                       ! Humidity Indicating Day Schedule Name
  DefaultMultipliers,                     ! Dry-Bulb Temperature Range Modifier Type
  ,                                       ! Dry-Bulb Temperature Range Modifier Schedule Name
  ASHRAETau,                              ! Solar Model Indicator
  ,                                       ! Beam Solar Day Schedule Name
  ,                                       ! Diffuse Solar Day Schedule Name
  0.4,                                    ! ASHRAE Taub {dimensionless}
  2.217;                                  ! ASHRAE Taud {dimensionless}

OS:ComponentData,
  {752a3bf2-952d-4771-aa74-0973d1e76206}, ! Handle
  Component Data 1,                       ! Name
  {460fd5b6-46df-4bfe-a2c4-dcd7128ab280}, ! UUID
  {4faa6100-883c-49d5-8418-76827537cf51}, ! Version UUID
  1366308186,                             ! Creation Timestamp
  1366308186,                             ! Version Timestamp
  {028878a2-e8a0-4aa5-bd37-c34e80a05447}; ! Name of Object 1

