
OS:Version,
  {c70534aa-7412-466f-a5ed-1aa2c5e045ef}, ! Handle
  0.9.3;                                  ! Version Identifier

OS:SizingPeriod:DesignDay,
  {65fb7738-c8fc-497d-aa97-c410637caf3b}, ! Handle
  Hartford/Brainard Fiel Ann Htg 99.6% Condns DB, ! Name
  -16,                                    ! Maximum Dry-Bulb Temperature {C}
  0,                                      ! Daily Dry-Bulb Temperature Range {deltaC}
  -16,                                    ! Humidity Indicating Conditions at Maximum Dry-Bulb {BasedOnField A3}
  101253,                                 ! Barometric Pressure {Pa}
  3.3,                                    ! Wind Speed {m/s}
  330,                                    ! Wind Direction {deg}
  0,                                      ! Sky Clearness
  0,                                      ! Rain Indicator
  0,                                      ! Snow Indicator
  21,                                     ! Day of Month
  1,                                      ! Month
  WinterDesignDay,                        ! Day Type
  0,                                      ! Daylight Saving Time Indicator
  Wetbulb,                                ! Humidity Indicating Type
  ,                                       ! Humidity Indicating Day Schedule Name
  DefaultMultipliers,                     ! Dry-Bulb Temperature Range Modifier Type
  ,                                       ! Dry-Bulb Temperature Range Modifier Schedule Name
  ASHRAEClearSky;                         ! Solar Model Indicator

OS:ComponentData,
  {9bf26d0e-4e8b-428b-b8ed-77610f7f4904}, ! Handle
  Component Data 1,                       ! Name
  {753e58cc-4462-418d-a5a0-aeedf2c87c00}, ! UUID
  {1e3b4b72-8a80-4f2b-832f-4c88326164ff}, ! Version UUID
  1366306752,                             ! Creation Timestamp
  1366306752,                             ! Version Timestamp
  {65fb7738-c8fc-497d-aa97-c410637caf3b}; ! Name of Object 1

