
OS:Version,
  {c41bbf5b-fa3f-416a-a5c0-4f4fcb193258}, ! Handle
  0.9.3;                                  ! Version Identifier

OS:SizingPeriod:DesignDay,
  {2f18e617-4a55-4103-a8b6-77c3c13066f9}, ! Handle
  Hunter Aaf Ann Clg .4% Condns Enth=>MDB, ! Name
  31.1,                                   ! Maximum Dry-Bulb Temperature {C}
  9.8,                                    ! Daily Dry-Bulb Temperature Range {deltaC}
  85600,                                  ! Humidity Indicating Conditions at Maximum Dry-Bulb {BasedOnField A3}
  101169,                                 ! Barometric Pressure {Pa}
  3.5,                                    ! Wind Speed {m/s}
  260,                                    ! Wind Direction {deg}
  0,                                      ! Sky Clearness
  0,                                      ! Rain Indicator
  0,                                      ! Snow Indicator
  21,                                     ! Day of Month
  7,                                      ! Month
  SummerDesignDay,                        ! Day Type
  0,                                      ! Daylight Saving Time Indicator
  Enthalpy,                               ! Humidity Indicating Type
  ,                                       ! Humidity Indicating Day Schedule Name
  DefaultMultipliers,                     ! Dry-Bulb Temperature Range Modifier Type
  ,                                       ! Dry-Bulb Temperature Range Modifier Schedule Name
  ASHRAETau,                              ! Solar Model Indicator
  ,                                       ! Beam Solar Day Schedule Name
  ,                                       ! Diffuse Solar Day Schedule Name
  0.556,                                  ! ASHRAE Taub {dimensionless}
  1.82;                                   ! ASHRAE Taud {dimensionless}

