
OS:Version,
  {27909c7e-e630-4611-9da4-16c50bd840c3}, ! Handle
  0.9.3;                                  ! Version Identifier

OS:SizingPeriod:DesignDay,
  {5da15367-5ebe-4e48-a919-36d1d89cdeff}, ! Handle
  LAKE_CHARLES Ann Clg 1% Condns DP=>MDB, ! Name
  28.8,                                   ! Maximum Dry-Bulb Temperature {C}
  8.6,                                    ! Daily Dry-Bulb Temperature Range {deltaC}
  25.9,                                   ! Humidity Indicating Conditions at Maximum Dry-Bulb {BasedOnField A3}
  101289,                                 ! Barometric Pressure {Pa}
  3.3,                                    ! Wind Speed {m/s}
  230,                                    ! Wind Direction {deg}
  0,                                      ! Sky Clearness
  0,                                      ! Rain Indicator
  0,                                      ! Snow Indicator
  21,                                     ! Day of Month
  7,                                      ! Month
  SummerDesignDay,                        ! Day Type
  0,                                      ! Daylight Saving Time Indicator
  Dewpoint,                               ! Humidity Indicating Type
  ,                                       ! Humidity Indicating Day Schedule Name
  DefaultMultipliers,                     ! Dry-Bulb Temperature Range Modifier Type
  ,                                       ! Dry-Bulb Temperature Range Modifier Schedule Name
  ASHRAETau,                              ! Solar Model Indicator
  ,                                       ! Beam Solar Day Schedule Name
  ,                                       ! Diffuse Solar Day Schedule Name
  0.528,                                  ! ASHRAE Taub {dimensionless}
  1.904;                                  ! ASHRAE Taud {dimensionless}

OS:ComponentData,
  {e18afca8-6060-4581-9c21-ddba183271ea}, ! Handle
  Component Data 1,                       ! Name
  {0ab51a0e-afa0-4a6f-ac0c-764eb289f042}, ! UUID
  {d0c2b43e-b9f7-4c99-bdb3-c56e08b632d0}, ! Version UUID
  1366307724,                             ! Creation Timestamp
  1366307724,                             ! Version Timestamp
  {5da15367-5ebe-4e48-a919-36d1d89cdeff}; ! Name of Object 1

