
OS:Version,
  {e99425b5-5294-4d80-a2a7-74af08c4dd5b}, ! Handle
  0.9.3;                                  ! Version Identifier

OS:SizingPeriod:DesignDay,
  {d6dfb790-ee2a-4a6b-a744-1af05cb476ab}, ! Handle
  Atlanta Hartsfield Intl Ap Ann Htg 99.6% Condns DB, ! Name
  -6.3,                                   ! Maximum Dry-Bulb Temperature {C}
  0,                                      ! Daily Dry-Bulb Temperature Range {deltaC}
  -6.3,                                   ! Humidity Indicating Conditions at Maximum Dry-Bulb {BasedOnField A3}
  97679,                                  ! Barometric Pressure {Pa}
  5.3,                                    ! Wind Speed {m/s}
  320,                                    ! Wind Direction {deg}
  0,                                      ! Sky Clearness
  0,                                      ! Rain Indicator
  0,                                      ! Snow Indicator
  21,                                     ! Day of Month
  1,                                      ! Month
  WinterDesignDay,                        ! Day Type
  0,                                      ! Daylight Saving Time Indicator
  Wetbulb,                                ! Humidity Indicating Type
  ,                                       ! Humidity Indicating Day Schedule Name
  DefaultMultipliers,                     ! Dry-Bulb Temperature Range Modifier Type
  ,                                       ! Dry-Bulb Temperature Range Modifier Schedule Name
  ASHRAEClearSky;                         ! Solar Model Indicator

OS:ComponentData,
  {c79e862d-baf6-42f4-8c95-8733d86fc493}, ! Handle
  Component Data 1,                       ! Name
  {4b302357-6a63-487c-89c9-137129fa3830}, ! UUID
  {858cae3a-278a-4109-8b10-9050234f2d15}, ! Version UUID
  1366306977,                             ! Creation Timestamp
  1366306977,                             ! Version Timestamp
  {d6dfb790-ee2a-4a6b-a744-1af05cb476ab}; ! Name of Object 1

