
OS:Version,
  {89b97083-f674-4372-98dd-0aeb3f963518}, ! Handle
  0.9.3;                                  ! Version Identifier

OS:SizingPeriod:DesignDay,
  {9524ab94-df37-4a6f-9e4a-e4b6e80701f2}, ! Handle
  Barrow W Post W Rogers Arpt Ann Clg 1% Condns DP=>MDB, ! Name
  11.3,                                   ! Maximum Dry-Bulb Temperature {C}
  6.3,                                    ! Daily Dry-Bulb Temperature Range {deltaC}
  8.6,                                    ! Humidity Indicating Conditions at Maximum Dry-Bulb {BasedOnField A3}
  101205,                                 ! Barometric Pressure {Pa}
  5.2,                                    ! Wind Speed {m/s}
  180,                                    ! Wind Direction {deg}
  0,                                      ! Sky Clearness
  0,                                      ! Rain Indicator
  0,                                      ! Snow Indicator
  21,                                     ! Day of Month
  7,                                      ! Month
  SummerDesignDay,                        ! Day Type
  0,                                      ! Daylight Saving Time Indicator
  Dewpoint,                               ! Humidity Indicating Type
  ,                                       ! Humidity Indicating Day Schedule Name
  DefaultMultipliers,                     ! Dry-Bulb Temperature Range Modifier Type
  ,                                       ! Dry-Bulb Temperature Range Modifier Schedule Name
  ASHRAETau,                              ! Solar Model Indicator
  ,                                       ! Beam Solar Day Schedule Name
  ,                                       ! Diffuse Solar Day Schedule Name
  0.344,                                  ! ASHRAE Taub {dimensionless}
  2.25;                                   ! ASHRAE Taud {dimensionless}

