
OS:Version,
  {9508a402-0cc2-48e0-98b9-ba9da8058ef8}, ! Handle
  0.9.3;                                  ! Version Identifier

OS:SizingPeriod:DesignDay,
  {f61dbfc9-78dd-442e-a066-81a62682898e}, ! Handle
  Arcata Airport Ann Htg Wind 99.6% Condns WS=>MCDB, ! Name
  12.3,                                   ! Maximum Dry-Bulb Temperature {C}
  0,                                      ! Daily Dry-Bulb Temperature Range {deltaC}
  12.3,                                   ! Humidity Indicating Conditions at Maximum Dry-Bulb {BasedOnField A3}
  100582,                                 ! Barometric Pressure {Pa}
  11.1,                                   ! Wind Speed {m/s}
  90,                                     ! Wind Direction {deg}
  0,                                      ! Sky Clearness
  0,                                      ! Rain Indicator
  0,                                      ! Snow Indicator
  21,                                     ! Day of Month
  12,                                     ! Month
  WinterDesignDay,                        ! Day Type
  0,                                      ! Daylight Saving Time Indicator
  Wetbulb,                                ! Humidity Indicating Type
  ,                                       ! Humidity Indicating Day Schedule Name
  DefaultMultipliers,                     ! Dry-Bulb Temperature Range Modifier Type
  ,                                       ! Dry-Bulb Temperature Range Modifier Schedule Name
  ASHRAEClearSky;                         ! Solar Model Indicator

OS:ComponentData,
  {d833a949-f12f-482c-9548-151fd9d2c4c5}, ! Handle
  Component Data 1,                       ! Name
  {9db2d932-0dc1-4566-8ab3-b4873256e903}, ! UUID
  {6a057894-dd2f-41e5-b595-165c00ff540f}, ! Version UUID
  1366306353,                             ! Creation Timestamp
  1366306353,                             ! Version Timestamp
  {f61dbfc9-78dd-442e-a066-81a62682898e}; ! Name of Object 1

