
OS:Version,
  {5cca30dd-556a-44d4-bfb8-2c86936747d4}, ! Handle
  0.9.3;                                  ! Version Identifier

OS:SizingPeriod:DesignDay,
  {9896a72b-b83a-43a6-8136-10d823cd6f11}, ! Handle
  Lawton Municipal Ann Clg .4% Condns Enth=>MDB, ! Name
  33.7,                                   ! Maximum Dry-Bulb Temperature {C}
  13.7,                                   ! Daily Dry-Bulb Temperature Range {deltaC}
  80700,                                  ! Humidity Indicating Conditions at Maximum Dry-Bulb {BasedOnField A3}
  97330,                                  ! Barometric Pressure {Pa}
  5.2,                                    ! Wind Speed {m/s}
  170,                                    ! Wind Direction {deg}
  0,                                      ! Sky Clearness
  0,                                      ! Rain Indicator
  0,                                      ! Snow Indicator
  21,                                     ! Day of Month
  7,                                      ! Month
  SummerDesignDay,                        ! Day Type
  0,                                      ! Daylight Saving Time Indicator
  Enthalpy,                               ! Humidity Indicating Type
  ,                                       ! Humidity Indicating Day Schedule Name
  DefaultMultipliers,                     ! Dry-Bulb Temperature Range Modifier Type
  ,                                       ! Dry-Bulb Temperature Range Modifier Schedule Name
  ASHRAETau,                              ! Solar Model Indicator
  ,                                       ! Beam Solar Day Schedule Name
  ,                                       ! Diffuse Solar Day Schedule Name
  0.436,                                  ! ASHRAE Taub {dimensionless}
  2.167;                                  ! ASHRAE Taud {dimensionless}

OS:ComponentData,
  {29004218-5745-465b-854c-8bda3a42f924}, ! Handle
  Component Data 1,                       ! Name
  {c633b441-638d-4250-b8e1-cbc59c00d7f5}, ! UUID
  {1cb9491a-1773-422b-aeb4-a3f870128639}, ! Version UUID
  1366309904,                             ! Creation Timestamp
  1366309904,                             ! Version Timestamp
  {9896a72b-b83a-43a6-8136-10d823cd6f11}; ! Name of Object 1

