
OS:Version,
  {785a4201-5133-471c-b1ad-9454873605d3}, ! Handle
  0.9.3;                                  ! Version Identifier

OS:SizingPeriod:DesignDay,
  {6639c736-8895-47d0-8e3a-02bb11382798}, ! Handle
  Brownsville S Padre Isl Intl Ann Clg 2% Condns WB=>MDB, ! Name
  30.7,                                   ! Maximum Dry-Bulb Temperature {C}
  9.5,                                    ! Daily Dry-Bulb Temperature Range {deltaC}
  26.5,                                   ! Humidity Indicating Conditions at Maximum Dry-Bulb {BasedOnField A3}
  101253,                                 ! Barometric Pressure {Pa}
  6.9,                                    ! Wind Speed {m/s}
  160,                                    ! Wind Direction {deg}
  0,                                      ! Sky Clearness
  0,                                      ! Rain Indicator
  0,                                      ! Snow Indicator
  21,                                     ! Day of Month
  8,                                      ! Month
  SummerDesignDay,                        ! Day Type
  0,                                      ! Daylight Saving Time Indicator
  Wetbulb,                                ! Humidity Indicating Type
  ,                                       ! Humidity Indicating Day Schedule Name
  DefaultMultipliers,                     ! Dry-Bulb Temperature Range Modifier Type
  ,                                       ! Dry-Bulb Temperature Range Modifier Schedule Name
  ASHRAETau,                              ! Solar Model Indicator
  ,                                       ! Beam Solar Day Schedule Name
  ,                                       ! Diffuse Solar Day Schedule Name
  0.465,                                  ! ASHRAE Taub {dimensionless}
  2.114;                                  ! ASHRAE Taud {dimensionless}

OS:ComponentData,
  {893d5c19-1204-497e-a544-d520423fc24b}, ! Handle
  Component Data 1,                       ! Name
  {f2b06839-a990-4399-b051-990c38bfbd23}, ! UUID
  {60d7affc-bac1-40a8-8625-38d55243ef53}, ! Version UUID
  1366310606,                             ! Creation Timestamp
  1366310606,                             ! Version Timestamp
  {6639c736-8895-47d0-8e3a-02bb11382798}; ! Name of Object 1

