
OS:Version,
  {e87358a6-c364-4692-8ed6-2b07816070a2}, ! Handle
  0.9.3;                                  ! Version Identifier

OS:SizingPeriod:DesignDay,
  {c2101031-bfd9-476e-b575-e013fa6c4d07}, ! Handle
  ATLANTA Ann Htg Wind 99% Condns WS=>MCDB, ! Name
  3.4,                                    ! Maximum Dry-Bulb Temperature {C}
  0,                                      ! Daily Dry-Bulb Temperature Range {deltaC}
  3.4,                                    ! Humidity Indicating Conditions at Maximum Dry-Bulb {BasedOnField A3}
  97598,                                  ! Barometric Pressure {Pa}
  10.7,                                   ! Wind Speed {m/s}
  320,                                    ! Wind Direction {deg}
  0,                                      ! Sky Clearness
  0,                                      ! Rain Indicator
  0,                                      ! Snow Indicator
  21,                                     ! Day of Month
  1,                                      ! Month
  WinterDesignDay,                        ! Day Type
  0,                                      ! Daylight Saving Time Indicator
  Wetbulb,                                ! Humidity Indicating Type
  ,                                       ! Humidity Indicating Day Schedule Name
  DefaultMultipliers,                     ! Dry-Bulb Temperature Range Modifier Type
  ,                                       ! Dry-Bulb Temperature Range Modifier Schedule Name
  ASHRAEClearSky;                         ! Solar Model Indicator

OS:ComponentData,
  {d57e6f5b-26bc-4050-86b9-5455aeed45c4}, ! Handle
  Component Data 1,                       ! Name
  {e344a681-98c2-4cf5-ac69-e7e182510647}, ! UUID
  {67bf8bed-edc5-4584-8bcc-1a9228137239}, ! Version UUID
  1366306981,                             ! Creation Timestamp
  1366306981,                             ! Version Timestamp
  {c2101031-bfd9-476e-b575-e013fa6c4d07}; ! Name of Object 1

