
OS:Version,
  {db8135da-c828-4e1e-8ca5-25831f7f5da9}, ! Handle
  0.9.3;                                  ! Version Identifier

OS:SizingPeriod:DesignDay,
  {cc906cc5-30c8-48b8-b068-2ed04574a445}, ! Handle
  Grand Forks Af Ann Clg .4% Condns Enth=>MDB, ! Name
  29.5,                                   ! Maximum Dry-Bulb Temperature {C}
  12.4,                                   ! Daily Dry-Bulb Temperature Range {deltaC}
  75900,                                  ! Humidity Indicating Conditions at Maximum Dry-Bulb {BasedOnField A3}
  98053,                                  ! Barometric Pressure {Pa}
  5.8,                                    ! Wind Speed {m/s}
  180,                                    ! Wind Direction {deg}
  0,                                      ! Sky Clearness
  0,                                      ! Rain Indicator
  0,                                      ! Snow Indicator
  21,                                     ! Day of Month
  7,                                      ! Month
  SummerDesignDay,                        ! Day Type
  0,                                      ! Daylight Saving Time Indicator
  Enthalpy,                               ! Humidity Indicating Type
  ,                                       ! Humidity Indicating Day Schedule Name
  DefaultMultipliers,                     ! Dry-Bulb Temperature Range Modifier Type
  ,                                       ! Dry-Bulb Temperature Range Modifier Schedule Name
  ASHRAETau,                              ! Solar Model Indicator
  ,                                       ! Beam Solar Day Schedule Name
  ,                                       ! Diffuse Solar Day Schedule Name
  0.393,                                  ! ASHRAE Taub {dimensionless}
  2.263;                                  ! ASHRAE Taud {dimensionless}

OS:ComponentData,
  {fd9c39b2-0cb5-447e-a614-00ec1a2bc1bf}, ! Handle
  Component Data 1,                       ! Name
  {a42211fa-78c0-421d-ad69-67e76f766927}, ! UUID
  {48fb43c2-8e0a-4a18-8fc7-c6392262e389}, ! Version UUID
  1366309043,                             ! Creation Timestamp
  1366309043,                             ! Version Timestamp
  {cc906cc5-30c8-48b8-b068-2ed04574a445}; ! Name of Object 1

