
OS:Version,
  {f27ffed5-3b1f-4a7f-8d5f-05b079dfabd2}, ! Handle
  0.9.3;                                  ! Version Identifier

OS:SizingPeriod:DesignDay,
  {f41e8e09-05bb-40bf-8741-93d4e7fa04d9}, ! Handle
  Leesburg Godfrey Ann Htg 99% Condns DB, ! Name
  -7.8,                                   ! Maximum Dry-Bulb Temperature {C}
  0,                                      ! Daily Dry-Bulb Temperature Range {deltaC}
  -7.8,                                   ! Humidity Indicating Conditions at Maximum Dry-Bulb {BasedOnField A3}
  99904,                                  ! Barometric Pressure {Pa}
  2.9,                                    ! Wind Speed {m/s}
  330,                                    ! Wind Direction {deg}
  0,                                      ! Sky Clearness
  0,                                      ! Rain Indicator
  0,                                      ! Snow Indicator
  21,                                     ! Day of Month
  1,                                      ! Month
  WinterDesignDay,                        ! Day Type
  0,                                      ! Daylight Saving Time Indicator
  Wetbulb,                                ! Humidity Indicating Type
  ,                                       ! Humidity Indicating Day Schedule Name
  DefaultMultipliers,                     ! Dry-Bulb Temperature Range Modifier Type
  ,                                       ! Dry-Bulb Temperature Range Modifier Schedule Name
  ASHRAEClearSky;                         ! Solar Model Indicator

OS:ComponentData,
  {c0cc002f-f036-498f-9a8e-c29f90c44f6d}, ! Handle
  Component Data 1,                       ! Name
  {d302a21c-e1c0-40e1-8295-0fc15cc548bf}, ! UUID
  {40036688-b188-4d5e-b7fb-9807fc19bfeb}, ! Version UUID
  1366311075,                             ! Creation Timestamp
  1366311075,                             ! Version Timestamp
  {f41e8e09-05bb-40bf-8741-93d4e7fa04d9}; ! Name of Object 1

