
OS:Version,
  {fcc72728-0702-4a18-813f-3f1dae784c14}, ! Handle
  0.9.3;                                  ! Version Identifier

OS:SizingPeriod:DesignDay,
  {77b6e096-1d11-4e0b-9933-108ec7a0bba5}, ! Handle
  Boone Muni Ann Clg .4% Condns DP=>MDB,  ! Name
  30.1,                                   ! Maximum Dry-Bulb Temperature {C}
  10.2,                                   ! Daily Dry-Bulb Temperature Range {deltaC}
  26.1,                                   ! Humidity Indicating Conditions at Maximum Dry-Bulb {BasedOnField A3}
  97144,                                  ! Barometric Pressure {Pa}
  4.5,                                    ! Wind Speed {m/s}
  190,                                    ! Wind Direction {deg}
  0,                                      ! Sky Clearness
  0,                                      ! Rain Indicator
  0,                                      ! Snow Indicator
  21,                                     ! Day of Month
  7,                                      ! Month
  SummerDesignDay,                        ! Day Type
  0,                                      ! Daylight Saving Time Indicator
  Dewpoint,                               ! Humidity Indicating Type
  ,                                       ! Humidity Indicating Day Schedule Name
  DefaultMultipliers,                     ! Dry-Bulb Temperature Range Modifier Type
  ,                                       ! Dry-Bulb Temperature Range Modifier Schedule Name
  ASHRAETau,                              ! Solar Model Indicator
  ,                                       ! Beam Solar Day Schedule Name
  ,                                       ! Diffuse Solar Day Schedule Name
  0.415,                                  ! ASHRAE Taub {dimensionless}
  2.199;                                  ! ASHRAE Taud {dimensionless}

OS:ComponentData,
  {4113aca8-825e-435d-b711-8eaec041973f}, ! Handle
  Component Data 1,                       ! Name
  {41010df4-8159-4370-842f-eaa90c4440ab}, ! UUID
  {4836f40b-9207-4b89-ad51-4932e218f58a}, ! Version UUID
  1366307137,                             ! Creation Timestamp
  1366307137,                             ! Version Timestamp
  {77b6e096-1d11-4e0b-9933-108ec7a0bba5}; ! Name of Object 1

