
OS:Version,
  {d4fe8185-9d70-4a5b-99f9-06f49b72837f}, ! Handle
  0.9.3;                                  ! Version Identifier

OS:SizingPeriod:DesignDay,
  {800d0850-fc26-4a90-8e61-144c1ad171b0}, ! Handle
  Detroit City Airport Ann Clg 2% Condns WB=>MDB, ! Name
  27.9,                                   ! Maximum Dry-Bulb Temperature {C}
  9.7,                                    ! Daily Dry-Bulb Temperature Range {deltaC}
  23,                                     ! Humidity Indicating Conditions at Maximum Dry-Bulb {BasedOnField A3}
  99063,                                  ! Barometric Pressure {Pa}
  5,                                      ! Wind Speed {m/s}
  230,                                    ! Wind Direction {deg}
  0,                                      ! Sky Clearness
  0,                                      ! Rain Indicator
  0,                                      ! Snow Indicator
  21,                                     ! Day of Month
  7,                                      ! Month
  SummerDesignDay,                        ! Day Type
  0,                                      ! Daylight Saving Time Indicator
  Wetbulb,                                ! Humidity Indicating Type
  ,                                       ! Humidity Indicating Day Schedule Name
  DefaultMultipliers,                     ! Dry-Bulb Temperature Range Modifier Type
  ,                                       ! Dry-Bulb Temperature Range Modifier Schedule Name
  ASHRAETau,                              ! Solar Model Indicator
  ,                                       ! Beam Solar Day Schedule Name
  ,                                       ! Diffuse Solar Day Schedule Name
  0.481,                                  ! ASHRAE Taub {dimensionless}
  1.939;                                  ! ASHRAE Taud {dimensionless}

OS:ComponentData,
  {41a21c3b-ea6f-4d74-a5cc-01ef4fa70aa2}, ! Handle
  Component Data 1,                       ! Name
  {682015e9-0efd-4c3e-ac11-4ac470fbd98a}, ! UUID
  {62af5cb2-06c3-45ee-9c3c-4c0bf0f24ad8}, ! Version UUID
  1366307977,                             ! Creation Timestamp
  1366307977,                             ! Version Timestamp
  {800d0850-fc26-4a90-8e61-144c1ad171b0}; ! Name of Object 1

