
OS:Version,
  {edc36981-da01-4df6-bb68-e15fc7ed9d3d}, ! Handle
  0.9.3;                                  ! Version Identifier

OS:SizingPeriod:DesignDay,
  {c6b543ed-bc69-48c4-902c-c20a97d263d5}, ! Handle
  Klamath Falls Intl Ap  Uo Ann Clg 1% Condns Enth=>MDB, ! Name
  28.8,                                   ! Maximum Dry-Bulb Temperature {C}
  18.6,                                   ! Daily Dry-Bulb Temperature Range {deltaC}
  54800,                                  ! Humidity Indicating Conditions at Maximum Dry-Bulb {BasedOnField A3}
  87502,                                  ! Barometric Pressure {Pa}
  3.5,                                    ! Wind Speed {m/s}
  320,                                    ! Wind Direction {deg}
  0,                                      ! Sky Clearness
  0,                                      ! Rain Indicator
  0,                                      ! Snow Indicator
  21,                                     ! Day of Month
  7,                                      ! Month
  SummerDesignDay,                        ! Day Type
  0,                                      ! Daylight Saving Time Indicator
  Enthalpy,                               ! Humidity Indicating Type
  ,                                       ! Humidity Indicating Day Schedule Name
  DefaultMultipliers,                     ! Dry-Bulb Temperature Range Modifier Type
  ,                                       ! Dry-Bulb Temperature Range Modifier Schedule Name
  ASHRAETau,                              ! Solar Model Indicator
  ,                                       ! Beam Solar Day Schedule Name
  ,                                       ! Diffuse Solar Day Schedule Name
  0.327,                                  ! ASHRAE Taub {dimensionless}
  2.593;                                  ! ASHRAE Taud {dimensionless}

OS:ComponentData,
  {c883c36b-b69c-4894-8307-f476e671054e}, ! Handle
  Component Data 1,                       ! Name
  {33ed45dd-6148-4a18-a0d0-658bf4ff4c51}, ! UUID
  {c33037e3-bac4-471e-aabe-a2c47d037b54}, ! Version UUID
  1366310018,                             ! Creation Timestamp
  1366310018,                             ! Version Timestamp
  {c6b543ed-bc69-48c4-902c-c20a97d263d5}; ! Name of Object 1

