
OS:Version,
  {46a048f9-b3ce-4847-b9b4-47ea5e52db86}, ! Handle
  0.9.3;                                  ! Version Identifier

OS:SizingPeriod:DesignDay,
  {8d0b020b-b970-4d70-9b36-8306b16274e7}, ! Handle
  Houston Bush Intercontinental Ann Clg .4% Condns Enth=>MDB, ! Name
  31.4,                                   ! Maximum Dry-Bulb Temperature {C}
  10.1,                                   ! Daily Dry-Bulb Temperature Range {deltaC}
  83200,                                  ! Humidity Indicating Conditions at Maximum Dry-Bulb {BasedOnField A3}
  100977,                                 ! Barometric Pressure {Pa}
  3.5,                                    ! Wind Speed {m/s}
  170,                                    ! Wind Direction {deg}
  0,                                      ! Sky Clearness
  0,                                      ! Rain Indicator
  0,                                      ! Snow Indicator
  21,                                     ! Day of Month
  7,                                      ! Month
  SummerDesignDay,                        ! Day Type
  0,                                      ! Daylight Saving Time Indicator
  Enthalpy,                               ! Humidity Indicating Type
  ,                                       ! Humidity Indicating Day Schedule Name
  DefaultMultipliers,                     ! Dry-Bulb Temperature Range Modifier Type
  ,                                       ! Dry-Bulb Temperature Range Modifier Schedule Name
  ASHRAETau,                              ! Solar Model Indicator
  ,                                       ! Beam Solar Day Schedule Name
  ,                                       ! Diffuse Solar Day Schedule Name
  0.499,                                  ! ASHRAE Taub {dimensionless}
  1.97;                                   ! ASHRAE Taud {dimensionless}

OS:ComponentData,
  {e2bd673c-3ba5-4c70-a608-f7c38427a176}, ! Handle
  Component Data 1,                       ! Name
  {be738648-e2a0-4656-bdfa-33ec23ef8e19}, ! UUID
  {0ebd8982-4d64-4fe6-8e83-27ada4677fa4}, ! Version UUID
  1366310744,                             ! Creation Timestamp
  1366310744,                             ! Version Timestamp
  {8d0b020b-b970-4d70-9b36-8306b16274e7}; ! Name of Object 1

