
OS:Version,
  {ed5b86df-fdef-48cb-972a-43ceb1887cf6}, ! Handle
  0.9.3;                                  ! Version Identifier

OS:SizingPeriod:DesignDay,
  {54a5f7d3-6972-4bfb-a050-daea58f7ec38}, ! Handle
  Altus Afb Ann Clg 1% Condns DB=>MWB,    ! Name
  38,                                     ! Maximum Dry-Bulb Temperature {C}
  13.4,                                   ! Daily Dry-Bulb Temperature Range {deltaC}
  23.2,                                   ! Humidity Indicating Conditions at Maximum Dry-Bulb {BasedOnField A3}
  96449,                                  ! Barometric Pressure {Pa}
  4.8,                                    ! Wind Speed {m/s}
  160,                                    ! Wind Direction {deg}
  0,                                      ! Sky Clearness
  0,                                      ! Rain Indicator
  0,                                      ! Snow Indicator
  21,                                     ! Day of Month
  7,                                      ! Month
  SummerDesignDay,                        ! Day Type
  0,                                      ! Daylight Saving Time Indicator
  Wetbulb,                                ! Humidity Indicating Type
  ,                                       ! Humidity Indicating Day Schedule Name
  DefaultMultipliers,                     ! Dry-Bulb Temperature Range Modifier Type
  ,                                       ! Dry-Bulb Temperature Range Modifier Schedule Name
  ASHRAETau,                              ! Solar Model Indicator
  ,                                       ! Beam Solar Day Schedule Name
  ,                                       ! Diffuse Solar Day Schedule Name
  0.426,                                  ! ASHRAE Taub {dimensionless}
  2.183;                                  ! ASHRAE Taud {dimensionless}

OS:ComponentData,
  {35e41c7a-0d03-44b6-adbe-2a53ff0fe4f5}, ! Handle
  Component Data 1,                       ! Name
  {1ae44eae-75bf-4386-8bb2-7afa5dd0bfdd}, ! UUID
  {94de5d61-2d9b-4ed9-bbb4-deef5c722de3}, ! Version UUID
  1366309878,                             ! Creation Timestamp
  1366309878,                             ! Version Timestamp
  {54a5f7d3-6972-4bfb-a050-daea58f7ec38}; ! Name of Object 1

