
OS:Version,
  {b80f21d5-df29-4317-8888-f2ea641e6e43}, ! Handle
  0.9.3;                                  ! Version Identifier

OS:SizingPeriod:DesignDay,
  {84d22a9b-d07b-48a8-ba4d-de95004b6080}, ! Handle
  Hilo International Ap Ann Htg Wind 99.6% Condns WS=>MCDB, ! Name
  23.3,                                   ! Maximum Dry-Bulb Temperature {C}
  0,                                      ! Daily Dry-Bulb Temperature Range {deltaC}
  23.3,                                   ! Humidity Indicating Conditions at Maximum Dry-Bulb {BasedOnField A3}
  101217,                                 ! Barometric Pressure {Pa}
  10.8,                                   ! Wind Speed {m/s}
  220,                                    ! Wind Direction {deg}
  0,                                      ! Sky Clearness
  0,                                      ! Rain Indicator
  0,                                      ! Snow Indicator
  21,                                     ! Day of Month
  2,                                      ! Month
  WinterDesignDay,                        ! Day Type
  0,                                      ! Daylight Saving Time Indicator
  Wetbulb,                                ! Humidity Indicating Type
  ,                                       ! Humidity Indicating Day Schedule Name
  DefaultMultipliers,                     ! Dry-Bulb Temperature Range Modifier Type
  ,                                       ! Dry-Bulb Temperature Range Modifier Schedule Name
  ASHRAEClearSky;                         ! Solar Model Indicator

OS:ComponentData,
  {8131c18a-0f58-426f-bf96-325b62a834de}, ! Handle
  Component Data 1,                       ! Name
  {cb0ea23a-1406-4ed3-bb7b-1963b5f5f1d9}, ! UUID
  {7b1ae488-a7bd-4844-90b7-d2e34a742bfb}, ! Version UUID
  1366307083,                             ! Creation Timestamp
  1366307083,                             ! Version Timestamp
  {84d22a9b-d07b-48a8-ba4d-de95004b6080}; ! Name of Object 1

