
OS:Version,
  {e1a622b9-925c-4d98-abbc-20ef4f2512c1}, ! Handle
  0.9.3;                                  ! Version Identifier

OS:SizingPeriod:DesignDay,
  {acc6b4fd-f763-4dc8-ad2d-ce1bc77fc83a}, ! Handle
  Glens Falls Ap Ann Clg 2% Condns DP=>MDB, ! Name
  24.6,                                   ! Maximum Dry-Bulb Temperature {C}
  12.1,                                   ! Daily Dry-Bulb Temperature Range {deltaC}
  20.9,                                   ! Humidity Indicating Conditions at Maximum Dry-Bulb {BasedOnField A3}
  100153,                                 ! Barometric Pressure {Pa}
  4.2,                                    ! Wind Speed {m/s}
  180,                                    ! Wind Direction {deg}
  0,                                      ! Sky Clearness
  0,                                      ! Rain Indicator
  0,                                      ! Snow Indicator
  21,                                     ! Day of Month
  7,                                      ! Month
  SummerDesignDay,                        ! Day Type
  0,                                      ! Daylight Saving Time Indicator
  Dewpoint,                               ! Humidity Indicating Type
  ,                                       ! Humidity Indicating Day Schedule Name
  DefaultMultipliers,                     ! Dry-Bulb Temperature Range Modifier Type
  ,                                       ! Dry-Bulb Temperature Range Modifier Schedule Name
  ASHRAETau,                              ! Solar Model Indicator
  ,                                       ! Beam Solar Day Schedule Name
  ,                                       ! Diffuse Solar Day Schedule Name
  0.484,                                  ! ASHRAE Taub {dimensionless}
  1.921;                                  ! ASHRAE Taud {dimensionless}

OS:ComponentData,
  {a87b90bc-fb64-48a3-b1b3-ccb7a39ff63a}, ! Handle
  Component Data 1,                       ! Name
  {0165696c-5316-4bb8-896c-f10da33e5958}, ! UUID
  {082175d3-af7b-4af1-9a34-7613f19afaf7}, ! Version UUID
  1366309627,                             ! Creation Timestamp
  1366309627,                             ! Version Timestamp
  {acc6b4fd-f763-4dc8-ad2d-ce1bc77fc83a}; ! Name of Object 1

