
OS:Version,
  {1a8e3182-6786-445e-b03a-eb1f80419740}, ! Handle
  0.9.3;                                  ! Version Identifier

OS:SizingPeriod:DesignDay,
  {ebd11ef9-8a80-4fd2-adc9-9b823b25cca1}, ! Handle
  Grand Island Central Ne Regio Ann Htg Wind 99.6% Condns WS=>MCDB, ! Name
  -1.8,                                   ! Maximum Dry-Bulb Temperature {C}
  0,                                      ! Daily Dry-Bulb Temperature Range {deltaC}
  -1.8,                                   ! Humidity Indicating Conditions at Maximum Dry-Bulb {BasedOnField A3}
  94765,                                  ! Barometric Pressure {Pa}
  14.7,                                   ! Wind Speed {m/s}
  0,                                      ! Wind Direction {deg}
  0,                                      ! Sky Clearness
  0,                                      ! Rain Indicator
  0,                                      ! Snow Indicator
  21,                                     ! Day of Month
  1,                                      ! Month
  WinterDesignDay,                        ! Day Type
  0,                                      ! Daylight Saving Time Indicator
  Wetbulb,                                ! Humidity Indicating Type
  ,                                       ! Humidity Indicating Day Schedule Name
  DefaultMultipliers,                     ! Dry-Bulb Temperature Range Modifier Type
  ,                                       ! Dry-Bulb Temperature Range Modifier Schedule Name
  ASHRAEClearSky;                         ! Solar Model Indicator

OS:ComponentData,
  {e861ab79-227b-41ce-b519-78218447af48}, ! Handle
  Component Data 1,                       ! Name
  {0aa8ad76-f058-4534-b6c1-06e01c32f8c1}, ! UUID
  {02125474-5a44-435a-a467-f78fce4d3980}, ! Version UUID
  1366309111,                             ! Creation Timestamp
  1366309111,                             ! Version Timestamp
  {ebd11ef9-8a80-4fd2-adc9-9b823b25cca1}; ! Name of Object 1

