
OS:Version,
  {27a875b5-9ae5-4a73-b26c-c13ce6bdb311}, ! Handle
  0.9.3;                                  ! Version Identifier

OS:SizingPeriod:DesignDay,
  {6bff123b-72e6-4f94-a89f-7439c1f01d99}, ! Handle
  Lafayette Regional Ap Ann Clg .4% Condns DB=>MWB, ! Name
  34.6,                                   ! Maximum Dry-Bulb Temperature {C}
  8.9,                                    ! Daily Dry-Bulb Temperature Range {deltaC}
  25.5,                                   ! Humidity Indicating Conditions at Maximum Dry-Bulb {BasedOnField A3}
  101181,                                 ! Barometric Pressure {Pa}
  3.5,                                    ! Wind Speed {m/s}
  110,                                    ! Wind Direction {deg}
  0,                                      ! Sky Clearness
  0,                                      ! Rain Indicator
  0,                                      ! Snow Indicator
  21,                                     ! Day of Month
  7,                                      ! Month
  SummerDesignDay,                        ! Day Type
  0,                                      ! Daylight Saving Time Indicator
  Wetbulb,                                ! Humidity Indicating Type
  ,                                       ! Humidity Indicating Day Schedule Name
  DefaultMultipliers,                     ! Dry-Bulb Temperature Range Modifier Type
  ,                                       ! Dry-Bulb Temperature Range Modifier Schedule Name
  ASHRAETau,                              ! Solar Model Indicator
  ,                                       ! Beam Solar Day Schedule Name
  ,                                       ! Diffuse Solar Day Schedule Name
  0.532,                                  ! ASHRAE Taub {dimensionless}
  1.875;                                  ! ASHRAE Taud {dimensionless}

OS:ComponentData,
  {2d5ead21-62f8-43dd-883a-3a0cb9993700}, ! Handle
  Component Data 1,                       ! Name
  {8bcc889a-64a2-4e1a-a2d1-49768c21ddd3}, ! UUID
  {793e2121-21c3-43bf-8959-d6a4de3465a8}, ! Version UUID
  1366307720,                             ! Creation Timestamp
  1366307720,                             ! Version Timestamp
  {6bff123b-72e6-4f94-a89f-7439c1f01d99}; ! Name of Object 1

