
OS:Version,
  {42b457c2-b8fc-410f-bcd2-aa927dee02cf}, ! Handle
  0.9.3;                                  ! Version Identifier

OS:SizingPeriod:DesignDay,
  {876d7fd2-5e73-419c-b7db-3278e0babce5}, ! Handle
  Harrisburg Ann Htg 99.6% Condns DB,     ! Name
  -13,                                    ! Maximum Dry-Bulb Temperature {C}
  0,                                      ! Daily Dry-Bulb Temperature Range {deltaC}
  -13,                                    ! Humidity Indicating Conditions at Maximum Dry-Bulb {BasedOnField A3}
  100201,                                 ! Barometric Pressure {Pa}
  3.5,                                    ! Wind Speed {m/s}
  270,                                    ! Wind Direction {deg}
  0,                                      ! Sky Clearness
  0,                                      ! Rain Indicator
  0,                                      ! Snow Indicator
  21,                                     ! Day of Month
  1,                                      ! Month
  WinterDesignDay,                        ! Day Type
  0,                                      ! Daylight Saving Time Indicator
  Wetbulb,                                ! Humidity Indicating Type
  ,                                       ! Humidity Indicating Day Schedule Name
  DefaultMultipliers,                     ! Dry-Bulb Temperature Range Modifier Type
  ,                                       ! Dry-Bulb Temperature Range Modifier Schedule Name
  ASHRAEClearSky;                         ! Solar Model Indicator

OS:ComponentData,
  {cb6a8fe8-8f1c-44de-9802-a67f54739795}, ! Handle
  Component Data 1,                       ! Name
  {896535e7-0dc2-4b1f-a23e-82310d6b6d3a}, ! UUID
  {ab584cf0-c8d5-49fc-9d54-a9ff1b2ddcf6}, ! Version UUID
  1366310182,                             ! Creation Timestamp
  1366310182,                             ! Version Timestamp
  {876d7fd2-5e73-419c-b7db-3278e0babce5}; ! Name of Object 1

