
OS:Version,
  {d630bb81-0d14-42ad-bd31-7d047f19900d}, ! Handle
  0.9.3;                                  ! Version Identifier

OS:SizingPeriod:DesignDay,
  {6a00004c-d76c-4224-b9f7-0f88991b321e}, ! Handle
  Alice Intl Ap Ann Clg 2% Condns DP=>MDB, ! Name
  27.7,                                   ! Maximum Dry-Bulb Temperature {C}
  12,                                     ! Daily Dry-Bulb Temperature Range {deltaC}
  25.1,                                   ! Humidity Indicating Conditions at Maximum Dry-Bulb {BasedOnField A3}
  100690,                                 ! Barometric Pressure {Pa}
  5.5,                                    ! Wind Speed {m/s}
  140,                                    ! Wind Direction {deg}
  0,                                      ! Sky Clearness
  0,                                      ! Rain Indicator
  0,                                      ! Snow Indicator
  21,                                     ! Day of Month
  7,                                      ! Month
  SummerDesignDay,                        ! Day Type
  0,                                      ! Daylight Saving Time Indicator
  Dewpoint,                               ! Humidity Indicating Type
  ,                                       ! Humidity Indicating Day Schedule Name
  DefaultMultipliers,                     ! Dry-Bulb Temperature Range Modifier Type
  ,                                       ! Dry-Bulb Temperature Range Modifier Schedule Name
  ASHRAETau,                              ! Solar Model Indicator
  ,                                       ! Beam Solar Day Schedule Name
  ,                                       ! Diffuse Solar Day Schedule Name
  0.449,                                  ! ASHRAE Taub {dimensionless}
  2.159;                                  ! ASHRAE Taud {dimensionless}

OS:ComponentData,
  {f5da3ff2-c061-45de-9b70-d9539cc7eda8}, ! Handle
  Component Data 1,                       ! Name
  {24b66965-39fb-4992-8673-597f277214f1}, ! UUID
  {57787f40-c1a1-4d52-bd5a-4e4c39d1d048}, ! Version UUID
  1366310563,                             ! Creation Timestamp
  1366310563,                             ! Version Timestamp
  {6a00004c-d76c-4224-b9f7-0f88991b321e}; ! Name of Object 1

