
OS:Version,
  {b968bdb3-8988-4d9a-8ec8-6cec4c87bbc5}, ! Handle
  0.9.3;                                  ! Version Identifier

OS:SizingPeriod:DesignDay,
  {31354393-a559-4fb1-8e62-86d297c79d41}, ! Handle
  Lihue Airport Ann Hum_n 99% Condns DP=>MCDB, ! Name
  19.3,                                   ! Maximum Dry-Bulb Temperature {C}
  0,                                      ! Daily Dry-Bulb Temperature Range {deltaC}
  11.4,                                   ! Humidity Indicating Conditions at Maximum Dry-Bulb {BasedOnField A3}
  100953,                                 ! Barometric Pressure {Pa}
  3.5,                                    ! Wind Speed {m/s}
  280,                                    ! Wind Direction {deg}
  0,                                      ! Sky Clearness
  0,                                      ! Rain Indicator
  0,                                      ! Snow Indicator
  21,                                     ! Day of Month
  2,                                      ! Month
  WinterDesignDay,                        ! Day Type
  0,                                      ! Daylight Saving Time Indicator
  Dewpoint,                               ! Humidity Indicating Type
  ,                                       ! Humidity Indicating Day Schedule Name
  DefaultMultipliers,                     ! Dry-Bulb Temperature Range Modifier Type
  ,                                       ! Dry-Bulb Temperature Range Modifier Schedule Name
  ASHRAEClearSky;                         ! Solar Model Indicator

OS:ComponentData,
  {2460af9e-c171-4134-8da9-a03d65be6610}, ! Handle
  Component Data 1,                       ! Name
  {b7c384a8-100f-434a-8d19-33fb625cc0f7}, ! UUID
  {d643c2b9-308d-4a98-aaaf-99e6157f5bb9}, ! Version UUID
  1366307120,                             ! Creation Timestamp
  1366307120,                             ! Version Timestamp
  {31354393-a559-4fb1-8e62-86d297c79d41}; ! Name of Object 1

