
OS:Version,
  {291586f7-6d27-439f-bba0-3dc78b131c3e}, ! Handle
  0.9.3;                                  ! Version Identifier

OS:SizingPeriod:DesignDay,
  {f0117e95-853d-45e6-8ee1-09a79000163e}, ! Handle
  EAU_CLAIRE Ann Clg .4% Condns WB=>MDB,  ! Name
  30.1,                                   ! Maximum Dry-Bulb Temperature {C}
  11.5,                                   ! Daily Dry-Bulb Temperature Range {deltaC}
  24.5,                                   ! Humidity Indicating Conditions at Maximum Dry-Bulb {BasedOnField A3}
  98088,                                  ! Barometric Pressure {Pa}
  5.2,                                    ! Wind Speed {m/s}
  190,                                    ! Wind Direction {deg}
  0,                                      ! Sky Clearness
  0,                                      ! Rain Indicator
  0,                                      ! Snow Indicator
  21,                                     ! Day of Month
  7,                                      ! Month
  SummerDesignDay,                        ! Day Type
  0,                                      ! Daylight Saving Time Indicator
  Wetbulb,                                ! Humidity Indicating Type
  ,                                       ! Humidity Indicating Day Schedule Name
  DefaultMultipliers,                     ! Dry-Bulb Temperature Range Modifier Type
  ,                                       ! Dry-Bulb Temperature Range Modifier Schedule Name
  ASHRAETau,                              ! Solar Model Indicator
  ,                                       ! Beam Solar Day Schedule Name
  ,                                       ! Diffuse Solar Day Schedule Name
  0.412,                                  ! ASHRAE Taub {dimensionless}
  2.189;                                  ! ASHRAE Taud {dimensionless}

OS:ComponentData,
  {7731f3de-11b5-496f-a42e-cc1d0c8e2780}, ! Handle
  Component Data 1,                       ! Name
  {5b056aca-156f-4c05-ae61-7073b330990e}, ! UUID
  {b772d0cb-0cf7-47d2-8453-2c67df1a2ab6}, ! Version UUID
  1366311464,                             ! Creation Timestamp
  1366311464,                             ! Version Timestamp
  {f0117e95-853d-45e6-8ee1-09a79000163e}; ! Name of Object 1

