
OS:Version,
  {cc41cb11-a10e-4ff0-9f1c-fc997b252122}, ! Handle
  0.9.3;                                  ! Version Identifier

OS:SizingPeriod:DesignDay,
  {478f39c7-4ea2-4843-95d6-c4921ac1f6e7}, ! Handle
  Homer Ann Clg .4% Condns DB=>MWB,       ! Name
  18.5,                                   ! Maximum Dry-Bulb Temperature {C}
  6.4,                                    ! Daily Dry-Bulb Temperature Range {deltaC}
  13.6,                                   ! Humidity Indicating Conditions at Maximum Dry-Bulb {BasedOnField A3}
  101025,                                 ! Barometric Pressure {Pa}
  4.4,                                    ! Wind Speed {m/s}
  250,                                    ! Wind Direction {deg}
  0,                                      ! Sky Clearness
  0,                                      ! Rain Indicator
  0,                                      ! Snow Indicator
  21,                                     ! Day of Month
  7,                                      ! Month
  SummerDesignDay,                        ! Day Type
  0,                                      ! Daylight Saving Time Indicator
  Wetbulb,                                ! Humidity Indicating Type
  ,                                       ! Humidity Indicating Day Schedule Name
  DefaultMultipliers,                     ! Dry-Bulb Temperature Range Modifier Type
  ,                                       ! Dry-Bulb Temperature Range Modifier Schedule Name
  ASHRAETau,                              ! Solar Model Indicator
  ,                                       ! Beam Solar Day Schedule Name
  ,                                       ! Diffuse Solar Day Schedule Name
  0.376,                                  ! ASHRAE Taub {dimensionless}
  2.236;                                  ! ASHRAE Taud {dimensionless}

OS:ComponentData,
  {4f1ec963-d6b4-4214-bf78-55492c594aa8}, ! Handle
  Component Data 1,                       ! Name
  {21f094d3-aeae-41d7-a740-da2a6aa8d90d}, ! UUID
  {567902e6-9f5a-4378-bd00-164ddf9e9aea}, ! Version UUID
  1366305302,                             ! Creation Timestamp
  1366305302,                             ! Version Timestamp
  {478f39c7-4ea2-4843-95d6-c4921ac1f6e7}; ! Name of Object 1

