
OS:Version,
  {70e44613-763c-4cf5-8c67-df46cc4381f8}, ! Handle
  0.9.3;                                  ! Version Identifier

OS:SizingPeriod:DesignDay,
  {5dce8c97-769c-4d9f-bc2c-b2abc74db624}, ! Handle
  CORPUS_CHRISTI Ann Clg 2% Condns WB=>MDB, ! Name
  30.9,                                   ! Maximum Dry-Bulb Temperature {C}
  10.1,                                   ! Daily Dry-Bulb Temperature Range {deltaC}
  26.5,                                   ! Humidity Indicating Conditions at Maximum Dry-Bulb {BasedOnField A3}
  101169,                                 ! Barometric Pressure {Pa}
  6.6,                                    ! Wind Speed {m/s}
  140,                                    ! Wind Direction {deg}
  0,                                      ! Sky Clearness
  0,                                      ! Rain Indicator
  0,                                      ! Snow Indicator
  21,                                     ! Day of Month
  8,                                      ! Month
  SummerDesignDay,                        ! Day Type
  0,                                      ! Daylight Saving Time Indicator
  Wetbulb,                                ! Humidity Indicating Type
  ,                                       ! Humidity Indicating Day Schedule Name
  DefaultMultipliers,                     ! Dry-Bulb Temperature Range Modifier Type
  ,                                       ! Dry-Bulb Temperature Range Modifier Schedule Name
  ASHRAETau,                              ! Solar Model Indicator
  ,                                       ! Beam Solar Day Schedule Name
  ,                                       ! Diffuse Solar Day Schedule Name
  0.463,                                  ! ASHRAE Taub {dimensionless}
  2.116;                                  ! ASHRAE Taud {dimensionless}

OS:ComponentData,
  {3c3e9182-c592-4c1e-8d80-17ec7d3a4151}, ! Handle
  Component Data 1,                       ! Name
  {831e8ab8-0bf6-4aef-a6c1-340aa610a8b6}, ! UUID
  {5f50a489-a461-4be7-9692-a527bb878d05}, ! Version UUID
  1366310622,                             ! Creation Timestamp
  1366310622,                             ! Version Timestamp
  {5dce8c97-769c-4d9f-bc2c-b2abc74db624}; ! Name of Object 1

