
OS:Version,
  {5e8f53dd-fe3e-42fc-b218-b45fb35ba93a}, ! Handle
  0.9.3;                                  ! Version Identifier

OS:SizingPeriod:DesignDay,
  {04bd3a2c-c3fe-4dbb-884f-89f3c85643e5}, ! Handle
  Holloman Afb Ann Clg 2% Condns WB=>MDB, ! Name
  29.1,                                   ! Maximum Dry-Bulb Temperature {C}
  14.5,                                   ! Daily Dry-Bulb Temperature Range {deltaC}
  19.3,                                   ! Humidity Indicating Conditions at Maximum Dry-Bulb {BasedOnField A3}
  87204,                                  ! Barometric Pressure {Pa}
  4.2,                                    ! Wind Speed {m/s}
  250,                                    ! Wind Direction {deg}
  0,                                      ! Sky Clearness
  0,                                      ! Rain Indicator
  0,                                      ! Snow Indicator
  21,                                     ! Day of Month
  7,                                      ! Month
  SummerDesignDay,                        ! Day Type
  0,                                      ! Daylight Saving Time Indicator
  Wetbulb,                                ! Humidity Indicating Type
  ,                                       ! Humidity Indicating Day Schedule Name
  DefaultMultipliers,                     ! Dry-Bulb Temperature Range Modifier Type
  ,                                       ! Dry-Bulb Temperature Range Modifier Schedule Name
  ASHRAETau,                              ! Solar Model Indicator
  ,                                       ! Beam Solar Day Schedule Name
  ,                                       ! Diffuse Solar Day Schedule Name
  0.514,                                  ! ASHRAE Taub {dimensionless}
  1.765;                                  ! ASHRAE Taud {dimensionless}

OS:ComponentData,
  {aad955a6-1740-4aec-8702-bf24763b2927}, ! Handle
  Component Data 1,                       ! Name
  {559af922-b0b8-4536-8a16-613cc0477051}, ! UUID
  {ef327eb4-5924-4460-8b68-dbd5408bc49f}, ! Version UUID
  1366309414,                             ! Creation Timestamp
  1366309414,                             ! Version Timestamp
  {04bd3a2c-c3fe-4dbb-884f-89f3c85643e5}; ! Name of Object 1

