
OS:Version,
  {08813b19-e107-4297-984a-02a2d1ae4a06}, ! Handle
  0.9.3;                                  ! Version Identifier

OS:SizingPeriod:DesignDay,
  {a4901ff4-bd80-4b49-987b-1f4bef73cf47}, ! Handle
  Concord Municipal Arpt Ann Clg .4% Condns DB=>MWB, ! Name
  32.1,                                   ! Maximum Dry-Bulb Temperature {C}
  12.8,                                   ! Daily Dry-Bulb Temperature Range {deltaC}
  21.8,                                   ! Humidity Indicating Conditions at Maximum Dry-Bulb {BasedOnField A3}
  100058,                                 ! Barometric Pressure {Pa}
  4.4,                                    ! Wind Speed {m/s}
  230,                                    ! Wind Direction {deg}
  0,                                      ! Sky Clearness
  0,                                      ! Rain Indicator
  0,                                      ! Snow Indicator
  21,                                     ! Day of Month
  7,                                      ! Month
  SummerDesignDay,                        ! Day Type
  0,                                      ! Daylight Saving Time Indicator
  Wetbulb,                                ! Humidity Indicating Type
  ,                                       ! Humidity Indicating Day Schedule Name
  DefaultMultipliers,                     ! Dry-Bulb Temperature Range Modifier Type
  ,                                       ! Dry-Bulb Temperature Range Modifier Schedule Name
  ASHRAETau,                              ! Solar Model Indicator
  ,                                       ! Beam Solar Day Schedule Name
  ,                                       ! Diffuse Solar Day Schedule Name
  0.459,                                  ! ASHRAE Taub {dimensionless}
  2.014;                                  ! ASHRAE Taud {dimensionless}

OS:ComponentData,
  {902d6f4b-7f29-49aa-b5ec-7fa6b8ac9643}, ! Handle
  Component Data 1,                       ! Name
  {a5d73cd9-b2e7-4b2b-9409-018112d0b7bd}, ! UUID
  {dcada3b2-043d-498b-80e3-982b86f70590}, ! Version UUID
  1366309231,                             ! Creation Timestamp
  1366309231,                             ! Version Timestamp
  {a4901ff4-bd80-4b49-987b-1f4bef73cf47}; ! Name of Object 1

