
OS:Version,
  {10dfb488-baf6-4d3d-8c7b-a47d2e8614fc}, ! Handle
  0.9.3;                                  ! Version Identifier

OS:SizingPeriod:DesignDay,
  {c386d9f5-a9c6-4916-998d-b1652e5f9cbc}, ! Handle
  Hot Springs Ingalls Ann Clg .4% Condns Enth=>MDB, ! Name
  24.6,                                   ! Maximum Dry-Bulb Temperature {C}
  7.7,                                    ! Daily Dry-Bulb Temperature Range {deltaC}
  70800,                                  ! Humidity Indicating Conditions at Maximum Dry-Bulb {BasedOnField A3}
  88187,                                  ! Barometric Pressure {Pa}
  3.5,                                    ! Wind Speed {m/s}
  280,                                    ! Wind Direction {deg}
  0,                                      ! Sky Clearness
  0,                                      ! Rain Indicator
  0,                                      ! Snow Indicator
  21,                                     ! Day of Month
  7,                                      ! Month
  SummerDesignDay,                        ! Day Type
  0,                                      ! Daylight Saving Time Indicator
  Enthalpy,                               ! Humidity Indicating Type
  ,                                       ! Humidity Indicating Day Schedule Name
  DefaultMultipliers,                     ! Dry-Bulb Temperature Range Modifier Type
  ,                                       ! Dry-Bulb Temperature Range Modifier Schedule Name
  ASHRAETau,                              ! Solar Model Indicator
  ,                                       ! Beam Solar Day Schedule Name
  ,                                       ! Diffuse Solar Day Schedule Name
  0.445,                                  ! ASHRAE Taub {dimensionless}
  2.005;                                  ! ASHRAE Taud {dimensionless}

OS:ComponentData,
  {794da47c-7caf-42ae-bbac-734896acae22}, ! Handle
  Component Data 1,                       ! Name
  {69f60e25-dcc6-4fc1-9cb5-4578061cef75}, ! UUID
  {d9e27647-a9cf-4be3-ba70-56219cbbbf70}, ! Version UUID
  1366311067,                             ! Creation Timestamp
  1366311067,                             ! Version Timestamp
  {c386d9f5-a9c6-4916-998d-b1652e5f9cbc}; ! Name of Object 1

