
OS:Version,
  {63f13500-bd2c-401e-99ee-21ba007d8f26}, ! Handle
  0.9.3;                                  ! Version Identifier

OS:SizingPeriod:DesignDay,
  {6b49e63d-fd0d-46d6-895f-180467daa042}, ! Handle
  Concord Ann Clg 1% Condns WB=>MDB,      ! Name
  27.8,                                   ! Maximum Dry-Bulb Temperature {C}
  12.8,                                   ! Daily Dry-Bulb Temperature Range {deltaC}
  22.7,                                   ! Humidity Indicating Conditions at Maximum Dry-Bulb {BasedOnField A3}
  100070,                                 ! Barometric Pressure {Pa}
  4.4,                                    ! Wind Speed {m/s}
  230,                                    ! Wind Direction {deg}
  0,                                      ! Sky Clearness
  0,                                      ! Rain Indicator
  0,                                      ! Snow Indicator
  21,                                     ! Day of Month
  7,                                      ! Month
  SummerDesignDay,                        ! Day Type
  0,                                      ! Daylight Saving Time Indicator
  Wetbulb,                                ! Humidity Indicating Type
  ,                                       ! Humidity Indicating Day Schedule Name
  DefaultMultipliers,                     ! Dry-Bulb Temperature Range Modifier Type
  ,                                       ! Dry-Bulb Temperature Range Modifier Schedule Name
  ASHRAETau,                              ! Solar Model Indicator
  ,                                       ! Beam Solar Day Schedule Name
  ,                                       ! Diffuse Solar Day Schedule Name
  0.459,                                  ! ASHRAE Taub {dimensionless}
  2.014;                                  ! ASHRAE Taud {dimensionless}

OS:ComponentData,
  {48575ca7-89f9-4ad1-b5e2-76d6677030af}, ! Handle
  Component Data 1,                       ! Name
  {d708827f-9ceb-407a-9419-cb49c7312c3d}, ! UUID
  {1322bcbb-8102-457e-9f14-2517f876cef1}, ! Version UUID
  1366309226,                             ! Creation Timestamp
  1366309226,                             ! Version Timestamp
  {6b49e63d-fd0d-46d6-895f-180467daa042}; ! Name of Object 1

