
OS:Version,
  {febe4425-a9da-45b0-bc67-034e4f1edb89}, ! Handle
  0.9.3;                                  ! Version Identifier

OS:SizingPeriod:DesignDay,
  {4e032bfa-d419-4b59-a0b3-4884c1db3a67}, ! Handle
  Casper Ann Htg Wind 99.6% Condns WS=>MCDB, ! Name
  1.6,                                    ! Maximum Dry-Bulb Temperature {C}
  0,                                      ! Daily Dry-Bulb Temperature Range {deltaC}
  1.6,                                    ! Humidity Indicating Conditions at Maximum Dry-Bulb {BasedOnField A3}
  83400,                                  ! Barometric Pressure {Pa}
  17.3,                                   ! Wind Speed {m/s}
  40,                                     ! Wind Direction {deg}
  0,                                      ! Sky Clearness
  0,                                      ! Rain Indicator
  0,                                      ! Snow Indicator
  21,                                     ! Day of Month
  12,                                     ! Month
  WinterDesignDay,                        ! Day Type
  0,                                      ! Daylight Saving Time Indicator
  Wetbulb,                                ! Humidity Indicating Type
  ,                                       ! Humidity Indicating Day Schedule Name
  DefaultMultipliers,                     ! Dry-Bulb Temperature Range Modifier Type
  ,                                       ! Dry-Bulb Temperature Range Modifier Schedule Name
  ASHRAEClearSky;                         ! Solar Model Indicator

OS:ComponentData,
  {1b51c564-3b52-42be-9c0f-287bfbca109b}, ! Handle
  Component Data 1,                       ! Name
  {17faa903-798e-4af0-94d8-26bfb97e60d0}, ! UUID
  {5fb4a642-9bbb-41e7-8772-e24cfde9f400}, ! Version UUID
  1366311683,                             ! Creation Timestamp
  1366311683,                             ! Version Timestamp
  {4e032bfa-d419-4b59-a0b3-4884c1db3a67}; ! Name of Object 1

