
OS:Version,
  {1d9f09cd-1158-4a9b-a070-870fc24abfad}, ! Handle
  0.9.3;                                  ! Version Identifier

OS:SizingPeriod:DesignDay,
  {8ab014d6-7453-4e6f-b4c8-3397f37d3d5c}, ! Handle
  Lake Charles Regional Arpt Ann Htg 99.6% Condns DB, ! Name
  -1.3,                                   ! Maximum Dry-Bulb Temperature {C}
  0,                                      ! Daily Dry-Bulb Temperature Range {deltaC}
  -1.3,                                   ! Humidity Indicating Conditions at Maximum Dry-Bulb {BasedOnField A3}
  101265,                                 ! Barometric Pressure {Pa}
  3.8,                                    ! Wind Speed {m/s}
  20,                                     ! Wind Direction {deg}
  0,                                      ! Sky Clearness
  0,                                      ! Rain Indicator
  0,                                      ! Snow Indicator
  21,                                     ! Day of Month
  1,                                      ! Month
  WinterDesignDay,                        ! Day Type
  0,                                      ! Daylight Saving Time Indicator
  Wetbulb,                                ! Humidity Indicating Type
  ,                                       ! Humidity Indicating Day Schedule Name
  DefaultMultipliers,                     ! Dry-Bulb Temperature Range Modifier Type
  ,                                       ! Dry-Bulb Temperature Range Modifier Schedule Name
  ASHRAEClearSky;                         ! Solar Model Indicator

OS:ComponentData,
  {5536c67c-4687-470e-960c-2ad9073bb9c6}, ! Handle
  Component Data 1,                       ! Name
  {41de832f-b9bd-4dfa-817e-0dbb0419dc3f}, ! UUID
  {f96f6988-4e28-47a0-a94b-65dd9ac21b8e}, ! Version UUID
  1366307731,                             ! Creation Timestamp
  1366307731,                             ! Version Timestamp
  {8ab014d6-7453-4e6f-b4c8-3397f37d3d5c}; ! Name of Object 1

