
OS:Version,
  {003540ee-3caf-4bc0-8dca-bf1a99b427f9}, ! Handle
  0.9.3;                                  ! Version Identifier

OS:SizingPeriod:DesignDay,
  {66706526-6940-4c89-b43d-01113738d918}, ! Handle
  Fort Worth/Meacham Fie Ann Clg 1% Condns Enth=>MDB, ! Name
  30.4,                                   ! Maximum Dry-Bulb Temperature {C}
  12,                                     ! Daily Dry-Bulb Temperature Range {deltaC}
  73300,                                  ! Humidity Indicating Conditions at Maximum Dry-Bulb {BasedOnField A3}
  98757,                                  ! Barometric Pressure {Pa}
  3.9,                                    ! Wind Speed {m/s}
  170,                                    ! Wind Direction {deg}
  0,                                      ! Sky Clearness
  0,                                      ! Rain Indicator
  0,                                      ! Snow Indicator
  21,                                     ! Day of Month
  7,                                      ! Month
  SummerDesignDay,                        ! Day Type
  0,                                      ! Daylight Saving Time Indicator
  Enthalpy,                               ! Humidity Indicating Type
  ,                                       ! Humidity Indicating Day Schedule Name
  DefaultMultipliers,                     ! Dry-Bulb Temperature Range Modifier Type
  ,                                       ! Dry-Bulb Temperature Range Modifier Schedule Name
  ASHRAETau,                              ! Solar Model Indicator
  ,                                       ! Beam Solar Day Schedule Name
  ,                                       ! Diffuse Solar Day Schedule Name
  0.433,                                  ! ASHRAE Taub {dimensionless}
  2.179;                                  ! ASHRAE Taud {dimensionless}

OS:ComponentData,
  {6f2b3570-8745-4f63-98bd-8f5e116c9b15}, ! Handle
  Component Data 1,                       ! Name
  {f6fffc94-d09e-45ae-88bf-1740aefb6cb6}, ! UUID
  {cf859bf7-6f4e-422c-8f04-9a1e1ed1e731}, ! Version UUID
  1366310707,                             ! Creation Timestamp
  1366310707,                             ! Version Timestamp
  {66706526-6940-4c89-b43d-01113738d918}; ! Name of Object 1

