
OS:Version,
  {b6999bf4-baa0-4276-b580-8b60a6d825fc}, ! Handle
  0.9.3;                                  ! Version Identifier

OS:SizingPeriod:DesignDay,
  {e45475d3-8e29-4560-8979-a4bbcc543408}, ! Handle
  ELY Ann Clg 2% Condns WB=>MDB,          ! Name
  26,                                     ! Maximum Dry-Bulb Temperature {C}
  20.3,                                   ! Daily Dry-Bulb Temperature Range {deltaC}
  14.5,                                   ! Humidity Indicating Conditions at Maximum Dry-Bulb {BasedOnField A3}
  80427,                                  ! Barometric Pressure {Pa}
  5.3,                                    ! Wind Speed {m/s}
  220,                                    ! Wind Direction {deg}
  0,                                      ! Sky Clearness
  0,                                      ! Rain Indicator
  0,                                      ! Snow Indicator
  21,                                     ! Day of Month
  7,                                      ! Month
  SummerDesignDay,                        ! Day Type
  0,                                      ! Daylight Saving Time Indicator
  Wetbulb,                                ! Humidity Indicating Type
  ,                                       ! Humidity Indicating Day Schedule Name
  DefaultMultipliers,                     ! Dry-Bulb Temperature Range Modifier Type
  ,                                       ! Dry-Bulb Temperature Range Modifier Schedule Name
  ASHRAETau,                              ! Solar Model Indicator
  ,                                       ! Beam Solar Day Schedule Name
  ,                                       ! Diffuse Solar Day Schedule Name
  0.442,                                  ! ASHRAE Taub {dimensionless}
  1.871;                                  ! ASHRAE Taud {dimensionless}

OS:ComponentData,
  {f17b1b1a-a159-4df6-8fe4-9adb185bde1f}, ! Handle
  Component Data 1,                       ! Name
  {177fa3bb-cb06-4ff4-8427-21411acc918f}, ! UUID
  {30223f66-7fc2-434a-930d-185f0bab81b1}, ! Version UUID
  1366309483,                             ! Creation Timestamp
  1366309483,                             ! Version Timestamp
  {e45475d3-8e29-4560-8979-a4bbcc543408}; ! Name of Object 1

