
OS:Version,
  {50009357-81a5-4ad9-87e7-091109d93ed8}, ! Handle
  0.9.3;                                  ! Version Identifier

OS:SizingPeriod:DesignDay,
  {c6282743-25b9-456b-8e22-35a2c80bfc60}, ! Handle
  Jackson Mckellar Sipes Regl A Ann Clg 1% Condns WB=>MDB, ! Name
  31.6,                                   ! Maximum Dry-Bulb Temperature {C}
  10.8,                                   ! Daily Dry-Bulb Temperature Range {deltaC}
  25.8,                                   ! Humidity Indicating Conditions at Maximum Dry-Bulb {BasedOnField A3}
  99749,                                  ! Barometric Pressure {Pa}
  3.2,                                    ! Wind Speed {m/s}
  240,                                    ! Wind Direction {deg}
  0,                                      ! Sky Clearness
  0,                                      ! Rain Indicator
  0,                                      ! Snow Indicator
  21,                                     ! Day of Month
  7,                                      ! Month
  SummerDesignDay,                        ! Day Type
  0,                                      ! Daylight Saving Time Indicator
  Wetbulb,                                ! Humidity Indicating Type
  ,                                       ! Humidity Indicating Day Schedule Name
  DefaultMultipliers,                     ! Dry-Bulb Temperature Range Modifier Type
  ,                                       ! Dry-Bulb Temperature Range Modifier Schedule Name
  ASHRAETau,                              ! Solar Model Indicator
  ,                                       ! Beam Solar Day Schedule Name
  ,                                       ! Diffuse Solar Day Schedule Name
  0.501,                                  ! ASHRAE Taub {dimensionless}
  1.926;                                  ! ASHRAE Taud {dimensionless}

OS:ComponentData,
  {16191b24-ec15-4d5c-b98c-36170fb08d43}, ! Handle
  Component Data 1,                       ! Name
  {5cd83bf5-3f47-4509-ae28-2c13f9bed6db}, ! UUID
  {3652930d-a9c3-4066-bf20-73cd4b64cbde}, ! Version UUID
  1366310505,                             ! Creation Timestamp
  1366310505,                             ! Version Timestamp
  {c6282743-25b9-456b-8e22-35a2c80bfc60}; ! Name of Object 1

