
OS:Version,
  {18044792-4217-43fe-aa9c-f8aa00b97536}, ! Handle
  0.9.3;                                  ! Version Identifier

OS:SizingPeriod:DesignDay,
  {1f3cf04e-ca9f-4311-94a0-b884b73cf973}, ! Handle
  Alamosa San Luis Valley Rgnl Ann Clg 2% Condns WB=>MDB, ! Name
  23.1,                                   ! Maximum Dry-Bulb Temperature {C}
  18.7,                                   ! Daily Dry-Bulb Temperature Range {deltaC}
  14.3,                                   ! Humidity Indicating Conditions at Maximum Dry-Bulb {BasedOnField A3}
  76617,                                  ! Barometric Pressure {Pa}
  5,                                      ! Wind Speed {m/s}
  240,                                    ! Wind Direction {deg}
  0,                                      ! Sky Clearness
  0,                                      ! Rain Indicator
  0,                                      ! Snow Indicator
  21,                                     ! Day of Month
  7,                                      ! Month
  SummerDesignDay,                        ! Day Type
  0,                                      ! Daylight Saving Time Indicator
  Wetbulb,                                ! Humidity Indicating Type
  ,                                       ! Humidity Indicating Day Schedule Name
  DefaultMultipliers,                     ! Dry-Bulb Temperature Range Modifier Type
  ,                                       ! Dry-Bulb Temperature Range Modifier Schedule Name
  ASHRAETau,                              ! Solar Model Indicator
  ,                                       ! Beam Solar Day Schedule Name
  ,                                       ! Diffuse Solar Day Schedule Name
  0.422,                                  ! ASHRAE Taub {dimensionless}
  2;                                      ! ASHRAE Taud {dimensionless}

OS:ComponentData,
  {606dbe54-7115-4f3a-bdc4-1b265c9db16f}, ! Handle
  Component Data 1,                       ! Name
  {2b75f24b-05d3-44ce-84b4-8164e03e47ea}, ! UUID
  {553e4dbb-f19f-4f8f-abd9-41229c4857a8}, ! Version UUID
  1366306648,                             ! Creation Timestamp
  1366306648,                             ! Version Timestamp
  {1f3cf04e-ca9f-4311-94a0-b884b73cf973}; ! Name of Object 1

