
OS:Version,
  {c0573c0a-6c6f-4c02-b5c0-aa3482febb1f}, ! Handle
  0.9.3;                                  ! Version Identifier

OS:SizingPeriod:DesignDay,
  {7fe1f20b-6cfc-4546-80b4-8e166d54172c}, ! Handle
  Gainesville Regional Ap Ann Clg 1% Condns DP=>MDB, ! Name
  27.9,                                   ! Maximum Dry-Bulb Temperature {C}
  10.2,                                   ! Daily Dry-Bulb Temperature Range {deltaC}
  24.7,                                   ! Humidity Indicating Conditions at Maximum Dry-Bulb {BasedOnField A3}
  100833,                                 ! Barometric Pressure {Pa}
  3.7,                                    ! Wind Speed {m/s}
  270,                                    ! Wind Direction {deg}
  0,                                      ! Sky Clearness
  0,                                      ! Rain Indicator
  0,                                      ! Snow Indicator
  21,                                     ! Day of Month
  7,                                      ! Month
  SummerDesignDay,                        ! Day Type
  0,                                      ! Daylight Saving Time Indicator
  Dewpoint,                               ! Humidity Indicating Type
  ,                                       ! Humidity Indicating Day Schedule Name
  DefaultMultipliers,                     ! Dry-Bulb Temperature Range Modifier Type
  ,                                       ! Dry-Bulb Temperature Range Modifier Schedule Name
  ASHRAETau,                              ! Solar Model Indicator
  ,                                       ! Beam Solar Day Schedule Name
  ,                                       ! Diffuse Solar Day Schedule Name
  0.528,                                  ! ASHRAE Taub {dimensionless}
  1.887;                                  ! ASHRAE Taud {dimensionless}

OS:ComponentData,
  {a3a57984-0b20-4b6f-a670-067cdb0e9c57}, ! Handle
  Component Data 1,                       ! Name
  {e4382eb7-f91f-41ae-9552-959c7457e0e2}, ! UUID
  {6ce16a8a-b955-453a-8096-6ef75da10e2d}, ! Version UUID
  1366306809,                             ! Creation Timestamp
  1366306809,                             ! Version Timestamp
  {7fe1f20b-6cfc-4546-80b4-8e166d54172c}; ! Name of Object 1

