
OS:Version,
  {2fa40e92-02d5-4573-93a2-9c34898beae0}, ! Handle
  0.9.3;                                  ! Version Identifier

OS:SizingPeriod:DesignDay,
  {a89226dd-7835-425d-b964-562e328032e9}, ! Handle
  Brownsville Ann Clg 1% Condns Enth=>MDB, ! Name
  30.7,                                   ! Maximum Dry-Bulb Temperature {C}
  9.5,                                    ! Daily Dry-Bulb Temperature Range {deltaC}
  83600,                                  ! Humidity Indicating Conditions at Maximum Dry-Bulb {BasedOnField A3}
  101253,                                 ! Barometric Pressure {Pa}
  6.9,                                    ! Wind Speed {m/s}
  160,                                    ! Wind Direction {deg}
  0,                                      ! Sky Clearness
  0,                                      ! Rain Indicator
  0,                                      ! Snow Indicator
  21,                                     ! Day of Month
  8,                                      ! Month
  SummerDesignDay,                        ! Day Type
  0,                                      ! Daylight Saving Time Indicator
  Enthalpy,                               ! Humidity Indicating Type
  ,                                       ! Humidity Indicating Day Schedule Name
  DefaultMultipliers,                     ! Dry-Bulb Temperature Range Modifier Type
  ,                                       ! Dry-Bulb Temperature Range Modifier Schedule Name
  ASHRAETau,                              ! Solar Model Indicator
  ,                                       ! Beam Solar Day Schedule Name
  ,                                       ! Diffuse Solar Day Schedule Name
  0.465,                                  ! ASHRAE Taub {dimensionless}
  2.114;                                  ! ASHRAE Taud {dimensionless}

OS:ComponentData,
  {5072a178-8187-4d27-a85e-e43da755786b}, ! Handle
  Component Data 1,                       ! Name
  {2b2ad4c0-471c-41a1-bd33-9eca722ec4e5}, ! UUID
  {424ef3b3-8cd2-4c5c-ad49-cb213db4af2e}, ! Version UUID
  1366310603,                             ! Creation Timestamp
  1366310603,                             ! Version Timestamp
  {a89226dd-7835-425d-b964-562e328032e9}; ! Name of Object 1

