
OS:Version,
  {419ce646-f86f-4be5-a27b-de8edda689dc}, ! Handle
  0.9.3;                                  ! Version Identifier

OS:SizingPeriod:DesignDay,
  {b9b99e9e-7f8a-4e2f-8366-85228678fb06}, ! Handle
  Del Rio  Ut Ann Clg 2% Condns DP=>MDB,  ! Name
  27.3,                                   ! Maximum Dry-Bulb Temperature {C}
  11.4,                                   ! Daily Dry-Bulb Temperature Range {deltaC}
  22.5,                                   ! Humidity Indicating Conditions at Maximum Dry-Bulb {BasedOnField A3}
  97679,                                  ! Barometric Pressure {Pa}
  4.8,                                    ! Wind Speed {m/s}
  140,                                    ! Wind Direction {deg}
  0,                                      ! Sky Clearness
  0,                                      ! Rain Indicator
  0,                                      ! Snow Indicator
  21,                                     ! Day of Month
  7,                                      ! Month
  SummerDesignDay,                        ! Day Type
  0,                                      ! Daylight Saving Time Indicator
  Dewpoint,                               ! Humidity Indicating Type
  ,                                       ! Humidity Indicating Day Schedule Name
  DefaultMultipliers,                     ! Dry-Bulb Temperature Range Modifier Type
  ,                                       ! Dry-Bulb Temperature Range Modifier Schedule Name
  ASHRAETau,                              ! Solar Model Indicator
  ,                                       ! Beam Solar Day Schedule Name
  ,                                       ! Diffuse Solar Day Schedule Name
  0.48,                                   ! ASHRAE Taub {dimensionless}
  1.993;                                  ! ASHRAE Taud {dimensionless}

OS:ComponentData,
  {80432d18-fcbb-45b8-a127-632971ad6e08}, ! Handle
  Component Data 1,                       ! Name
  {5fb9fbc2-90cc-4b49-b0f6-f11f5377ecec}, ! UUID
  {c29338e9-ac6e-49cc-8964-7fef18140c3f}, ! Version UUID
  1366310677,                             ! Creation Timestamp
  1366310677,                             ! Version Timestamp
  {b9b99e9e-7f8a-4e2f-8366-85228678fb06}; ! Name of Object 1

