
OS:Version,
  {47712da2-9c2c-415a-abef-11c0844156e6}, ! Handle
  0.9.3;                                  ! Version Identifier

OS:SizingPeriod:DesignDay,
  {d363767b-3cd1-4547-9b32-69f53ba1794e}, ! Handle
  Hays Muni  Awos Ann Clg 2% Condns DP=>MDB, ! Name
  26.3,                                   ! Maximum Dry-Bulb Temperature {C}
  14.1,                                   ! Daily Dry-Bulb Temperature Range {deltaC}
  19.7,                                   ! Humidity Indicating Conditions at Maximum Dry-Bulb {BasedOnField A3}
  94220,                                  ! Barometric Pressure {Pa}
  7.9,                                    ! Wind Speed {m/s}
  190,                                    ! Wind Direction {deg}
  0,                                      ! Sky Clearness
  0,                                      ! Rain Indicator
  0,                                      ! Snow Indicator
  21,                                     ! Day of Month
  7,                                      ! Month
  SummerDesignDay,                        ! Day Type
  0,                                      ! Daylight Saving Time Indicator
  Dewpoint,                               ! Humidity Indicating Type
  ,                                       ! Humidity Indicating Day Schedule Name
  DefaultMultipliers,                     ! Dry-Bulb Temperature Range Modifier Type
  ,                                       ! Dry-Bulb Temperature Range Modifier Schedule Name
  ASHRAETau,                              ! Solar Model Indicator
  ,                                       ! Beam Solar Day Schedule Name
  ,                                       ! Diffuse Solar Day Schedule Name
  0.433,                                  ! ASHRAE Taub {dimensionless}
  2.099;                                  ! ASHRAE Taud {dimensionless}

OS:ComponentData,
  {c9521f00-1084-49e2-9c0c-99d2931a2aa0}, ! Handle
  Component Data 1,                       ! Name
  {5e451c46-a087-4493-8962-cd3b51a311fc}, ! UUID
  {6c79c58d-89c6-44eb-814f-6cf105d20994}, ! Version UUID
  1366307546,                             ! Creation Timestamp
  1366307546,                             ! Version Timestamp
  {d363767b-3cd1-4547-9b32-69f53ba1794e}; ! Name of Object 1

