
OS:Version,
  {9ad1d435-f5ca-48bb-8abd-d6a89c6a37c1}, ! Handle
  0.9.3;                                  ! Version Identifier

OS:SizingPeriod:DesignDay,
  {0c33f68f-2b72-4dbc-b85b-c1d33eee491e}, ! Handle
  Houston/Intercontinent Ann Clg .4% Condns DB=>MWB, ! Name
  36,                                     ! Maximum Dry-Bulb Temperature {C}
  10.1,                                   ! Daily Dry-Bulb Temperature Range {deltaC}
  24.8,                                   ! Humidity Indicating Conditions at Maximum Dry-Bulb {BasedOnField A3}
  100929,                                 ! Barometric Pressure {Pa}
  3.5,                                    ! Wind Speed {m/s}
  170,                                    ! Wind Direction {deg}
  0,                                      ! Sky Clearness
  0,                                      ! Rain Indicator
  0,                                      ! Snow Indicator
  21,                                     ! Day of Month
  7,                                      ! Month
  SummerDesignDay,                        ! Day Type
  0,                                      ! Daylight Saving Time Indicator
  Wetbulb,                                ! Humidity Indicating Type
  ,                                       ! Humidity Indicating Day Schedule Name
  DefaultMultipliers,                     ! Dry-Bulb Temperature Range Modifier Type
  ,                                       ! Dry-Bulb Temperature Range Modifier Schedule Name
  ASHRAETau,                              ! Solar Model Indicator
  ,                                       ! Beam Solar Day Schedule Name
  ,                                       ! Diffuse Solar Day Schedule Name
  0.499,                                  ! ASHRAE Taub {dimensionless}
  1.97;                                   ! ASHRAE Taud {dimensionless}

OS:ComponentData,
  {bc750f22-7d97-4253-ab93-bb588f0ee15e}, ! Handle
  Component Data 1,                       ! Name
  {140ba6d6-677c-4da7-bff3-e8cc33b83bd1}, ! UUID
  {f26e0356-9dd8-4ab7-a077-b29f715d5f94}, ! Version UUID
  1366310739,                             ! Creation Timestamp
  1366310739,                             ! Version Timestamp
  {0c33f68f-2b72-4dbc-b85b-c1d33eee491e}; ! Name of Object 1

