
OS:Version,
  {d47073bd-ff81-44b4-be86-18a1c333c814}, ! Handle
  0.9.3;                                  ! Version Identifier

OS:SizingPeriod:DesignDay,
  {f6cdcac6-bbfb-450f-bcb3-7cb386b5e0c5}, ! Handle
  Lafayette Regional Ap Ann Clg 2% Condns DP=>MDB, ! Name
  28.3,                                   ! Maximum Dry-Bulb Temperature {C}
  8.9,                                    ! Daily Dry-Bulb Temperature Range {deltaC}
  25.1,                                   ! Humidity Indicating Conditions at Maximum Dry-Bulb {BasedOnField A3}
  101181,                                 ! Barometric Pressure {Pa}
  3.5,                                    ! Wind Speed {m/s}
  110,                                    ! Wind Direction {deg}
  0,                                      ! Sky Clearness
  0,                                      ! Rain Indicator
  0,                                      ! Snow Indicator
  21,                                     ! Day of Month
  7,                                      ! Month
  SummerDesignDay,                        ! Day Type
  0,                                      ! Daylight Saving Time Indicator
  Dewpoint,                               ! Humidity Indicating Type
  ,                                       ! Humidity Indicating Day Schedule Name
  DefaultMultipliers,                     ! Dry-Bulb Temperature Range Modifier Type
  ,                                       ! Dry-Bulb Temperature Range Modifier Schedule Name
  ASHRAETau,                              ! Solar Model Indicator
  ,                                       ! Beam Solar Day Schedule Name
  ,                                       ! Diffuse Solar Day Schedule Name
  0.532,                                  ! ASHRAE Taub {dimensionless}
  1.875;                                  ! ASHRAE Taud {dimensionless}

OS:ComponentData,
  {c872cc3c-0d9b-4dd4-8d36-3eeb9491f6bc}, ! Handle
  Component Data 1,                       ! Name
  {38137633-0b04-4e2b-a41b-73cac4c90d06}, ! UUID
  {ea1f0790-dfef-4e35-a48b-e7f67a61d9b7}, ! Version UUID
  1366307721,                             ! Creation Timestamp
  1366307721,                             ! Version Timestamp
  {f6cdcac6-bbfb-450f-bcb3-7cb386b5e0c5}; ! Name of Object 1

