
OS:Version,
  {e89260be-0f1a-42dd-9b29-7d0e12cdd014}, ! Handle
  0.9.3;                                  ! Version Identifier

OS:SizingPeriod:DesignDay,
  {708076eb-9506-475f-8c18-5e4d000ba20e}, ! Handle
  Denver Intl Ap Ann Clg 2% Condns Enth=>MDB, ! Name
  26.3,                                   ! Maximum Dry-Bulb Temperature {C}
  15.2,                                   ! Daily Dry-Bulb Temperature Range {deltaC}
  53800,                                  ! Humidity Indicating Conditions at Maximum Dry-Bulb {BasedOnField A3}
  83011,                                  ! Barometric Pressure {Pa}
  4.2,                                    ! Wind Speed {m/s}
  80,                                     ! Wind Direction {deg}
  0,                                      ! Sky Clearness
  0,                                      ! Rain Indicator
  0,                                      ! Snow Indicator
  21,                                     ! Day of Month
  7,                                      ! Month
  SummerDesignDay,                        ! Day Type
  0,                                      ! Daylight Saving Time Indicator
  Enthalpy,                               ! Humidity Indicating Type
  ,                                       ! Humidity Indicating Day Schedule Name
  DefaultMultipliers,                     ! Dry-Bulb Temperature Range Modifier Type
  ,                                       ! Dry-Bulb Temperature Range Modifier Schedule Name
  ASHRAETau,                              ! Solar Model Indicator
  ,                                       ! Beam Solar Day Schedule Name
  ,                                       ! Diffuse Solar Day Schedule Name
  0.424,                                  ! ASHRAE Taub {dimensionless}
  2.012;                                  ! ASHRAE Taud {dimensionless}

OS:ComponentData,
  {c4c3f6fc-41fe-4456-8a58-0a0cee3630e5}, ! Handle
  Component Data 1,                       ! Name
  {f31add5a-9db2-478e-ac8b-1807e4236423}, ! UUID
  {8f97de26-d4d1-4b7f-ad26-2f191fdefe6d}, ! Version UUID
  1366306679,                             ! Creation Timestamp
  1366306679,                             ! Version Timestamp
  {708076eb-9506-475f-8c18-5e4d000ba20e}; ! Name of Object 1

