
OS:Version,
  {ed24be63-d5be-4c4f-8fa1-d7e15a87f958}, ! Handle
  0.9.3;                                  ! Version Identifier

OS:SizingPeriod:DesignDay,
  {092c230f-0cf6-4496-8b7b-db0acc58788e}, ! Handle
  Austin Muni Ann Clg 2% Condns DB=>MWB,  ! Name
  28,                                     ! Maximum Dry-Bulb Temperature {C}
  10.2,                                   ! Daily Dry-Bulb Temperature Range {deltaC}
  21.8,                                   ! Humidity Indicating Conditions at Maximum Dry-Bulb {BasedOnField A3}
  96900,                                  ! Barometric Pressure {Pa}
  5.2,                                    ! Wind Speed {m/s}
  200,                                    ! Wind Direction {deg}
  0,                                      ! Sky Clearness
  0,                                      ! Rain Indicator
  0,                                      ! Snow Indicator
  21,                                     ! Day of Month
  7,                                      ! Month
  SummerDesignDay,                        ! Day Type
  0,                                      ! Daylight Saving Time Indicator
  Wetbulb,                                ! Humidity Indicating Type
  ,                                       ! Humidity Indicating Day Schedule Name
  DefaultMultipliers,                     ! Dry-Bulb Temperature Range Modifier Type
  ,                                       ! Dry-Bulb Temperature Range Modifier Schedule Name
  ASHRAETau,                              ! Solar Model Indicator
  ,                                       ! Beam Solar Day Schedule Name
  ,                                       ! Diffuse Solar Day Schedule Name
  0.407,                                  ! ASHRAE Taub {dimensionless}
  2.215;                                  ! ASHRAE Taud {dimensionless}

OS:ComponentData,
  {db52cd50-913d-456b-a257-cdcd717e2e8a}, ! Handle
  Component Data 1,                       ! Name
  {0b5af19d-1bef-43e2-9e28-4435ecc83159}, ! UUID
  {3e50a4d1-279d-4175-af4d-7fcbf74d4e35}, ! Version UUID
  1366308149,                             ! Creation Timestamp
  1366308149,                             ! Version Timestamp
  {092c230f-0cf6-4496-8b7b-db0acc58788e}; ! Name of Object 1

