
OS:Version,
  {9baf656f-c8d9-4558-9e2a-9d67adef4e40}, ! Handle
  0.9.3;                                  ! Version Identifier

OS:SizingPeriod:DesignDay,
  {6bbbaad5-8fb9-4860-8bf5-e51550d822d1}, ! Handle
  Hartford Brainard Fd Ann Clg 2% Condns Enth=>MDB, ! Name
  27.1,                                   ! Maximum Dry-Bulb Temperature {C}
  9.9,                                    ! Daily Dry-Bulb Temperature Range {deltaC}
  69300,                                  ! Humidity Indicating Conditions at Maximum Dry-Bulb {BasedOnField A3}
  101253,                                 ! Barometric Pressure {Pa}
  4.6,                                    ! Wind Speed {m/s}
  260,                                    ! Wind Direction {deg}
  0,                                      ! Sky Clearness
  0,                                      ! Rain Indicator
  0,                                      ! Snow Indicator
  21,                                     ! Day of Month
  7,                                      ! Month
  SummerDesignDay,                        ! Day Type
  0,                                      ! Daylight Saving Time Indicator
  Enthalpy,                               ! Humidity Indicating Type
  ,                                       ! Humidity Indicating Day Schedule Name
  DefaultMultipliers,                     ! Dry-Bulb Temperature Range Modifier Type
  ,                                       ! Dry-Bulb Temperature Range Modifier Schedule Name
  ASHRAETau,                              ! Solar Model Indicator
  ,                                       ! Beam Solar Day Schedule Name
  ,                                       ! Diffuse Solar Day Schedule Name
  0.496,                                  ! ASHRAE Taub {dimensionless}
  1.916;                                  ! ASHRAE Taud {dimensionless}

OS:ComponentData,
  {7d5a8a42-9751-4887-bf11-d37ba6f53d04}, ! Handle
  Component Data 1,                       ! Name
  {81643de1-bdd9-4499-b90a-01d7f31e3a69}, ! UUID
  {fb106448-3772-4b8f-8658-c73ac07df349}, ! Version UUID
  1366306761,                             ! Creation Timestamp
  1366306761,                             ! Version Timestamp
  {6bbbaad5-8fb9-4860-8bf5-e51550d822d1}; ! Name of Object 1

