
OS:Version,
  {1de474fa-6f6e-4508-a1b6-63bad599ad64}, ! Handle
  0.9.3;                                  ! Version Identifier

OS:SizingPeriod:DesignDay,
  {185580d4-90cf-478d-9eef-932bcf468fb2}, ! Handle
  Beckley Raleigh Co Mem Ap Ann Clg 1% Condns DP=>MDB, ! Name
  23.8,                                   ! Maximum Dry-Bulb Temperature {C}
  9.4,                                    ! Daily Dry-Bulb Temperature Range {deltaC}
  20.5,                                   ! Humidity Indicating Conditions at Maximum Dry-Bulb {BasedOnField A3}
  92488,                                  ! Barometric Pressure {Pa}
  3.5,                                    ! Wind Speed {m/s}
  300,                                    ! Wind Direction {deg}
  0,                                      ! Sky Clearness
  0,                                      ! Rain Indicator
  0,                                      ! Snow Indicator
  21,                                     ! Day of Month
  7,                                      ! Month
  SummerDesignDay,                        ! Day Type
  0,                                      ! Daylight Saving Time Indicator
  Dewpoint,                               ! Humidity Indicating Type
  ,                                       ! Humidity Indicating Day Schedule Name
  DefaultMultipliers,                     ! Dry-Bulb Temperature Range Modifier Type
  ,                                       ! Dry-Bulb Temperature Range Modifier Schedule Name
  ASHRAETau,                              ! Solar Model Indicator
  ,                                       ! Beam Solar Day Schedule Name
  ,                                       ! Diffuse Solar Day Schedule Name
  0.478,                                  ! ASHRAE Taub {dimensionless}
  1.931;                                  ! ASHRAE Taud {dimensionless}

OS:ComponentData,
  {7b59ac8c-a961-4fde-8d9e-c35bde7d96ee}, ! Handle
  Component Data 1,                       ! Name
  {ec1e8547-2c13-4c03-bc1a-8a4659b6fcd1}, ! UUID
  {e267b239-0b4b-48f9-aaf8-ee352ad3744d}, ! Version UUID
  1366311609,                             ! Creation Timestamp
  1366311609,                             ! Version Timestamp
  {185580d4-90cf-478d-9eef-932bcf468fb2}; ! Name of Object 1

