
OS:Version,
  {fffc0530-da83-44f3-b413-761487ab924c}, ! Handle
  0.9.3;                                  ! Version Identifier

OS:SizingPeriod:DesignDay,
  {f18e1fc8-07d8-49a1-b8ab-8f6bddf48cd4}, ! Handle
  Lexington Bluegrass Ap Ann Hum_n 99% Condns DP=>MCDB, ! Name
  -9.3,                                   ! Maximum Dry-Bulb Temperature {C}
  0,                                      ! Daily Dry-Bulb Temperature Range {deltaC}
  -15.9,                                  ! Humidity Indicating Conditions at Maximum Dry-Bulb {BasedOnField A3}
  97843,                                  ! Barometric Pressure {Pa}
  3.5,                                    ! Wind Speed {m/s}
  290,                                    ! Wind Direction {deg}
  0,                                      ! Sky Clearness
  0,                                      ! Rain Indicator
  0,                                      ! Snow Indicator
  21,                                     ! Day of Month
  1,                                      ! Month
  WinterDesignDay,                        ! Day Type
  0,                                      ! Daylight Saving Time Indicator
  Dewpoint,                               ! Humidity Indicating Type
  ,                                       ! Humidity Indicating Day Schedule Name
  DefaultMultipliers,                     ! Dry-Bulb Temperature Range Modifier Type
  ,                                       ! Dry-Bulb Temperature Range Modifier Schedule Name
  ASHRAEClearSky;                         ! Solar Model Indicator

OS:ComponentData,
  {f53cac02-f448-4652-a89a-43b8219878ab}, ! Handle
  Component Data 1,                       ! Name
  {9997e692-aaad-424a-9e76-d33500b0aba9}, ! UUID
  {4d705546-5c39-44ad-9aae-07c5b69db43e}, ! Version UUID
  1366307651,                             ! Creation Timestamp
  1366307651,                             ! Version Timestamp
  {f18e1fc8-07d8-49a1-b8ab-8f6bddf48cd4}; ! Name of Object 1

