
OS:Version,
  {33f527e9-e0f9-415a-a435-72bd81679828}, ! Handle
  0.9.3;                                  ! Version Identifier

OS:SizingPeriod:DesignDay,
  {34469574-14a5-4426-9835-7885d9a5a8f3}, ! Handle
  Cape May Co Ann Clg .4% Condns WB=>MDB, ! Name
  29.7,                                   ! Maximum Dry-Bulb Temperature {C}
  8.1,                                    ! Daily Dry-Bulb Temperature Range {deltaC}
  25.2,                                   ! Humidity Indicating Conditions at Maximum Dry-Bulb {BasedOnField A3}
  101241,                                 ! Barometric Pressure {Pa}
  4.4,                                    ! Wind Speed {m/s}
  240,                                    ! Wind Direction {deg}
  0,                                      ! Sky Clearness
  0,                                      ! Rain Indicator
  0,                                      ! Snow Indicator
  21,                                     ! Day of Month
  7,                                      ! Month
  SummerDesignDay,                        ! Day Type
  0,                                      ! Daylight Saving Time Indicator
  Wetbulb,                                ! Humidity Indicating Type
  ,                                       ! Humidity Indicating Day Schedule Name
  DefaultMultipliers,                     ! Dry-Bulb Temperature Range Modifier Type
  ,                                       ! Dry-Bulb Temperature Range Modifier Schedule Name
  ASHRAETau,                              ! Solar Model Indicator
  ,                                       ! Beam Solar Day Schedule Name
  ,                                       ! Diffuse Solar Day Schedule Name
  0.564,                                  ! ASHRAE Taub {dimensionless}
  1.76;                                   ! ASHRAE Taud {dimensionless}

OS:ComponentData,
  {5363f537-fbea-4662-bb49-a60e050f9c91}, ! Handle
  Component Data 1,                       ! Name
  {9aeadd14-015f-4abf-840f-1eb8da046c78}, ! UUID
  {200824b4-af94-4310-bebd-e52670fd7c59}, ! Version UUID
  1366309303,                             ! Creation Timestamp
  1366309303,                             ! Version Timestamp
  {34469574-14a5-4426-9835-7885d9a5a8f3}; ! Name of Object 1

