
OS:Version,
  {51b14584-f934-4209-aa50-3dab57a0f2d1}, ! Handle
  0.9.3;                                  ! Version Identifier

OS:SizingPeriod:DesignDay,
  {98395ce9-32df-4de5-acc0-3309e6878894}, ! Handle
  GREENVILLE Ann Clg 2% Condns WB=>MDB,   ! Name
  29.3,                                   ! Maximum Dry-Bulb Temperature {C}
  10.6,                                   ! Daily Dry-Bulb Temperature Range {deltaC}
  24,                                     ! Humidity Indicating Conditions at Maximum Dry-Bulb {BasedOnField A3}
  97819,                                  ! Barometric Pressure {Pa}
  3.6,                                    ! Wind Speed {m/s}
  230,                                    ! Wind Direction {deg}
  0,                                      ! Sky Clearness
  0,                                      ! Rain Indicator
  0,                                      ! Snow Indicator
  21,                                     ! Day of Month
  7,                                      ! Month
  SummerDesignDay,                        ! Day Type
  0,                                      ! Daylight Saving Time Indicator
  Wetbulb,                                ! Humidity Indicating Type
  ,                                       ! Humidity Indicating Day Schedule Name
  DefaultMultipliers,                     ! Dry-Bulb Temperature Range Modifier Type
  ,                                       ! Dry-Bulb Temperature Range Modifier Schedule Name
  ASHRAETau,                              ! Solar Model Indicator
  ,                                       ! Beam Solar Day Schedule Name
  ,                                       ! Diffuse Solar Day Schedule Name
  0.545,                                  ! ASHRAE Taub {dimensionless}
  1.796;                                  ! ASHRAE Taud {dimensionless}

OS:ComponentData,
  {40d61c53-af80-41c1-be8f-5789e3c4ad5b}, ! Handle
  Component Data 1,                       ! Name
  {4e9bdb2e-21f1-4cfc-a8e6-ac5741405a50}, ! UUID
  {3abcd11f-b349-47aa-8e21-63cf8fe9c335}, ! Version UUID
  1366310358,                             ! Creation Timestamp
  1366310358,                             ! Version Timestamp
  {98395ce9-32df-4de5-acc0-3309e6878894}; ! Name of Object 1

