
OS:Version,
  {af6008f9-358b-404f-b6ec-369a969421db}, ! Handle
  0.9.3;                                  ! Version Identifier

OS:SizingPeriod:DesignDay,
  {488a61ff-857e-4b04-835f-34220682ba1f}, ! Handle
  Houghton Lake Roscommon Co Ar Ann Clg 2% Condns DP=>MDB, ! Name
  24.3,                                   ! Maximum Dry-Bulb Temperature {C}
  12.8,                                   ! Daily Dry-Bulb Temperature Range {deltaC}
  20,                                     ! Humidity Indicating Conditions at Maximum Dry-Bulb {BasedOnField A3}
  97179,                                  ! Barometric Pressure {Pa}
  4.2,                                    ! Wind Speed {m/s}
  240,                                    ! Wind Direction {deg}
  0,                                      ! Sky Clearness
  0,                                      ! Rain Indicator
  0,                                      ! Snow Indicator
  21,                                     ! Day of Month
  7,                                      ! Month
  SummerDesignDay,                        ! Day Type
  0,                                      ! Daylight Saving Time Indicator
  Dewpoint,                               ! Humidity Indicating Type
  ,                                       ! Humidity Indicating Day Schedule Name
  DefaultMultipliers,                     ! Dry-Bulb Temperature Range Modifier Type
  ,                                       ! Dry-Bulb Temperature Range Modifier Schedule Name
  ASHRAETau,                              ! Solar Model Indicator
  ,                                       ! Beam Solar Day Schedule Name
  ,                                       ! Diffuse Solar Day Schedule Name
  0.413,                                  ! ASHRAE Taub {dimensionless}
  2.189;                                  ! ASHRAE Taud {dimensionless}

OS:ComponentData,
  {0e6717a6-6f68-4c59-9030-3e2a4cbcfcc4}, ! Handle
  Component Data 1,                       ! Name
  {42184479-1c5e-423c-ae76-5df0408aa727}, ! UUID
  {bb3046d1-af93-4f20-b2b6-4c653e4b082b}, ! Version UUID
  1366308027,                             ! Creation Timestamp
  1366308027,                             ! Version Timestamp
  {488a61ff-857e-4b04-835f-34220682ba1f}; ! Name of Object 1

