
OS:Version,
  {379f0329-c160-4c98-b08c-1c454f5f1af9}, ! Handle
  0.9.3;                                  ! Version Identifier

OS:SizingPeriod:DesignDay,
  {56b82c6a-029e-4d44-b5da-fdfad2dcf680}, ! Handle
  Kingman  Amos Ann Clg .4% Condns Enth=>MDB, ! Name
  30,                                     ! Maximum Dry-Bulb Temperature {C}
  14.3,                                   ! Daily Dry-Bulb Temperature Range {deltaC}
  66700,                                  ! Humidity Indicating Conditions at Maximum Dry-Bulb {BasedOnField A3}
  89515,                                  ! Barometric Pressure {Pa}
  6.1,                                    ! Wind Speed {m/s}
  230,                                    ! Wind Direction {deg}
  0,                                      ! Sky Clearness
  0,                                      ! Rain Indicator
  0,                                      ! Snow Indicator
  21,                                     ! Day of Month
  7,                                      ! Month
  SummerDesignDay,                        ! Day Type
  0,                                      ! Daylight Saving Time Indicator
  Enthalpy,                               ! Humidity Indicating Type
  ,                                       ! Humidity Indicating Day Schedule Name
  DefaultMultipliers,                     ! Dry-Bulb Temperature Range Modifier Type
  ,                                       ! Dry-Bulb Temperature Range Modifier Schedule Name
  ASHRAETau,                              ! Solar Model Indicator
  ,                                       ! Beam Solar Day Schedule Name
  ,                                       ! Diffuse Solar Day Schedule Name
  0.477,                                  ! ASHRAE Taub {dimensionless}
  1.865;                                  ! ASHRAE Taud {dimensionless}

OS:ComponentData,
  {3d7beafc-5f13-4bf9-8f7f-4d8a88289f0c}, ! Handle
  Component Data 1,                       ! Name
  {6169d394-daea-4ec9-b03a-d9b468fd69df}, ! UUID
  {e414577d-45ab-4184-9662-30959ace96cc}, ! Version UUID
  1366306281,                             ! Creation Timestamp
  1366306281,                             ! Version Timestamp
  {56b82c6a-029e-4d44-b5da-fdfad2dcf680}; ! Name of Object 1

