
OS:Version,
  {6464ecb3-e7d9-497a-ab1b-e9af22a1c11c}, ! Handle
  0.9.3;                                  ! Version Identifier

OS:SizingPeriod:DesignDay,
  {2b8ce175-4453-4374-a5c3-0baa7db5a386}, ! Handle
  Jamestown  Awos Ann Clg 2% Condns DP=>MDB, ! Name
  22.9,                                   ! Maximum Dry-Bulb Temperature {C}
  9.1,                                    ! Daily Dry-Bulb Temperature Range {deltaC}
  19,                                     ! Humidity Indicating Conditions at Maximum Dry-Bulb {BasedOnField A3}
  95175,                                  ! Barometric Pressure {Pa}
  4.2,                                    ! Wind Speed {m/s}
  240,                                    ! Wind Direction {deg}
  0,                                      ! Sky Clearness
  0,                                      ! Rain Indicator
  0,                                      ! Snow Indicator
  21,                                     ! Day of Month
  7,                                      ! Month
  SummerDesignDay,                        ! Day Type
  0,                                      ! Daylight Saving Time Indicator
  Dewpoint,                               ! Humidity Indicating Type
  ,                                       ! Humidity Indicating Day Schedule Name
  DefaultMultipliers,                     ! Dry-Bulb Temperature Range Modifier Type
  ,                                       ! Dry-Bulb Temperature Range Modifier Schedule Name
  ASHRAETau,                              ! Solar Model Indicator
  ,                                       ! Beam Solar Day Schedule Name
  ,                                       ! Diffuse Solar Day Schedule Name
  0.425,                                  ! ASHRAE Taub {dimensionless}
  2.121;                                  ! ASHRAE Taud {dimensionless}

OS:ComponentData,
  {6a0293ef-c656-47a5-9a7d-d4920ce7274c}, ! Handle
  Component Data 1,                       ! Name
  {f9a38df7-dbae-48a8-8ec7-0029b5991f43}, ! UUID
  {b2823f60-d3a0-46e6-80e2-33af24af6ce9}, ! Version UUID
  1366309642,                             ! Creation Timestamp
  1366309642,                             ! Version Timestamp
  {2b8ce175-4453-4374-a5c3-0baa7db5a386}; ! Name of Object 1

