
OS:Version,
  {9f56c9bb-aa10-4b4f-a3a4-cb47a4836be9}, ! Handle
  0.9.3;                                  ! Version Identifier

OS:SizingPeriod:DesignDay,
  {5cd6c454-eed3-42d4-adef-2df9ceec9629}, ! Handle
  HUNTSVILLE Ann Clg .4% Condns Enth=>MDB, ! Name
  31.5,                                   ! Maximum Dry-Bulb Temperature {C}
  10.4,                                   ! Daily Dry-Bulb Temperature Range {deltaC}
  80200,                                  ! Humidity Indicating Conditions at Maximum Dry-Bulb {BasedOnField A3}
  99063,                                  ! Barometric Pressure {Pa}
  3.6,                                    ! Wind Speed {m/s}
  270,                                    ! Wind Direction {deg}
  0,                                      ! Sky Clearness
  0,                                      ! Rain Indicator
  0,                                      ! Snow Indicator
  21,                                     ! Day of Month
  7,                                      ! Month
  SummerDesignDay,                        ! Day Type
  0,                                      ! Daylight Saving Time Indicator
  Enthalpy,                               ! Humidity Indicating Type
  ,                                       ! Humidity Indicating Day Schedule Name
  DefaultMultipliers,                     ! Dry-Bulb Temperature Range Modifier Type
  ,                                       ! Dry-Bulb Temperature Range Modifier Schedule Name
  ASHRAETau,                              ! Solar Model Indicator
  ,                                       ! Beam Solar Day Schedule Name
  ,                                       ! Diffuse Solar Day Schedule Name
  0.552,                                  ! ASHRAE Taub {dimensionless}
  1.785;                                  ! ASHRAE Taud {dimensionless}

OS:ComponentData,
  {d7b518ac-7014-4c73-8a17-5474c7b99901}, ! Handle
  Component Data 1,                       ! Name
  {55133f79-a9b9-49f2-9c67-e62f31cef62d}, ! UUID
  {c982b91b-b61d-4b27-bb99-618bf6fbf124}, ! Version UUID
  1366305667,                             ! Creation Timestamp
  1366305667,                             ! Version Timestamp
  {5cd6c454-eed3-42d4-adef-2df9ceec9629}; ! Name of Object 1

