
OS:Version,
  {87297971-af7a-4230-80d4-cc0920ac7038}, ! Handle
  0.9.3;                                  ! Version Identifier

OS:SizingPeriod:DesignDay,
  {bff40b0a-343c-48cb-a95c-c6f838795280}, ! Handle
  Hancock Houghton Co Ap Ann Clg 1% Condns DP=>MDB, ! Name
  24.1,                                   ! Maximum Dry-Bulb Temperature {C}
  10.5,                                   ! Daily Dry-Bulb Temperature Range {deltaC}
  19.7,                                   ! Humidity Indicating Conditions at Maximum Dry-Bulb {BasedOnField A3}
  97458,                                  ! Barometric Pressure {Pa}
  4.7,                                    ! Wind Speed {m/s}
  270,                                    ! Wind Direction {deg}
  0,                                      ! Sky Clearness
  0,                                      ! Rain Indicator
  0,                                      ! Snow Indicator
  21,                                     ! Day of Month
  7,                                      ! Month
  SummerDesignDay,                        ! Day Type
  0,                                      ! Daylight Saving Time Indicator
  Dewpoint,                               ! Humidity Indicating Type
  ,                                       ! Humidity Indicating Day Schedule Name
  DefaultMultipliers,                     ! Dry-Bulb Temperature Range Modifier Type
  ,                                       ! Dry-Bulb Temperature Range Modifier Schedule Name
  ASHRAETau,                              ! Solar Model Indicator
  ,                                       ! Beam Solar Day Schedule Name
  ,                                       ! Diffuse Solar Day Schedule Name
  0.413,                                  ! ASHRAE Taub {dimensionless}
  2.179;                                  ! ASHRAE Taud {dimensionless}

OS:ComponentData,
  {bfcb22e6-346d-4ef8-b073-0b4cd4a7e2b7}, ! Handle
  Component Data 1,                       ! Name
  {7664fc77-353d-415b-8d99-ce07d0f95f9f}, ! UUID
  {c1c21736-0a9f-40d0-9fdf-70d22e1eb529}, ! Version UUID
  1366308023,                             ! Creation Timestamp
  1366308023,                             ! Version Timestamp
  {bff40b0a-343c-48cb-a95c-c6f838795280}; ! Name of Object 1

