
OS:Version,
  {15e1ffd9-50ca-4cee-be27-407fed9c1628}, ! Handle
  0.9.3;                                  ! Version Identifier

OS:SizingPeriod:DesignDay,
  {5d44057d-9546-40c9-b445-58562935bed8}, ! Handle
  Fresno Yosemite Intl Ap Ann Htg Wind 99.6% Condns WS=>MCDB, ! Name
  11.4,                                   ! Maximum Dry-Bulb Temperature {C}
  0,                                      ! Daily Dry-Bulb Temperature Range {deltaC}
  11.4,                                   ! Humidity Indicating Conditions at Maximum Dry-Bulb {BasedOnField A3}
  100106,                                 ! Barometric Pressure {Pa}
  8.6,                                    ! Wind Speed {m/s}
  80,                                     ! Wind Direction {deg}
  0,                                      ! Sky Clearness
  0,                                      ! Rain Indicator
  0,                                      ! Snow Indicator
  21,                                     ! Day of Month
  12,                                     ! Month
  WinterDesignDay,                        ! Day Type
  0,                                      ! Daylight Saving Time Indicator
  Wetbulb,                                ! Humidity Indicating Type
  ,                                       ! Humidity Indicating Day Schedule Name
  DefaultMultipliers,                     ! Dry-Bulb Temperature Range Modifier Type
  ,                                       ! Dry-Bulb Temperature Range Modifier Schedule Name
  ASHRAEClearSky;                         ! Solar Model Indicator

OS:ComponentData,
  {1e3d39e3-0707-4cc4-b6c3-200e319fcb22}, ! Handle
  Component Data 1,                       ! Name
  {a520b0a8-4628-4e12-aa98-2817387979c7}, ! UUID
  {6ab3f407-66d4-4185-9a5b-57a82442c9f5}, ! Version UUID
  1366306439,                             ! Creation Timestamp
  1366306439,                             ! Version Timestamp
  {5d44057d-9546-40c9-b445-58562935bed8}; ! Name of Object 1

