
OS:Version,
  {80789703-2abe-493c-b63b-0540449cc745}, ! Handle
  0.9.3;                                  ! Version Identifier

OS:SizingPeriod:DesignDay,
  {7a342f37-698e-4fd5-ba99-84efb94d3067}, ! Handle
  Glen Burnie/Baltimore/ Ann Clg 1% Condns DP=>MDB, ! Name
  27.1,                                   ! Maximum Dry-Bulb Temperature {C}
  10.4,                                   ! Daily Dry-Bulb Temperature Range {deltaC}
  23.4,                                   ! Humidity Indicating Conditions at Maximum Dry-Bulb {BasedOnField A3}
  100762,                                 ! Barometric Pressure {Pa}
  4.6,                                    ! Wind Speed {m/s}
  280,                                    ! Wind Direction {deg}
  0,                                      ! Sky Clearness
  0,                                      ! Rain Indicator
  0,                                      ! Snow Indicator
  21,                                     ! Day of Month
  7,                                      ! Month
  SummerDesignDay,                        ! Day Type
  0,                                      ! Daylight Saving Time Indicator
  Dewpoint,                               ! Humidity Indicating Type
  ,                                       ! Humidity Indicating Day Schedule Name
  DefaultMultipliers,                     ! Dry-Bulb Temperature Range Modifier Type
  ,                                       ! Dry-Bulb Temperature Range Modifier Schedule Name
  ASHRAETau,                              ! Solar Model Indicator
  ,                                       ! Beam Solar Day Schedule Name
  ,                                       ! Diffuse Solar Day Schedule Name
  0.552,                                  ! ASHRAE Taub {dimensionless}
  1.769;                                  ! ASHRAE Taud {dimensionless}

OS:ComponentData,
  {98ac6f47-2d17-427c-b923-3ade4d49916b}, ! Handle
  Component Data 1,                       ! Name
  {0fd1491e-2d85-4663-8552-4d810338ddd2}, ! UUID
  {48a03107-3a60-4579-8491-d14ab95513a3}, ! Version UUID
  1366307838,                             ! Creation Timestamp
  1366307838,                             ! Version Timestamp
  {7a342f37-698e-4fd5-ba99-84efb94d3067}; ! Name of Object 1

