
OS:Version,
  {734a110c-2199-4996-bc8a-7c890161a08c}, ! Handle
  0.9.3;                                  ! Version Identifier

OS:SizingPeriod:DesignDay,
  {6e570117-adff-4b29-8d82-fe27a256d02e}, ! Handle
  Liberal Muni Ann Htg 99.6% Condns DB,   ! Name
  -13.8,                                  ! Maximum Dry-Bulb Temperature {C}
  0,                                      ! Daily Dry-Bulb Temperature Range {deltaC}
  -13.8,                                  ! Humidity Indicating Conditions at Maximum Dry-Bulb {BasedOnField A3}
  90959,                                  ! Barometric Pressure {Pa}
  4.3,                                    ! Wind Speed {m/s}
  10,                                     ! Wind Direction {deg}
  0,                                      ! Sky Clearness
  0,                                      ! Rain Indicator
  0,                                      ! Snow Indicator
  21,                                     ! Day of Month
  1,                                      ! Month
  WinterDesignDay,                        ! Day Type
  0,                                      ! Daylight Saving Time Indicator
  Wetbulb,                                ! Humidity Indicating Type
  ,                                       ! Humidity Indicating Day Schedule Name
  DefaultMultipliers,                     ! Dry-Bulb Temperature Range Modifier Type
  ,                                       ! Dry-Bulb Temperature Range Modifier Schedule Name
  ASHRAEClearSky;                         ! Solar Model Indicator

OS:ComponentData,
  {07daa6b8-2850-4e10-98d6-6801fb555cf8}, ! Handle
  Component Data 1,                       ! Name
  {097243d9-ceb0-4993-bc7f-7420ecb9630c}, ! UUID
  {0515651b-a8cc-400b-874f-cdffe4d39750}, ! Version UUID
  1366307554,                             ! Creation Timestamp
  1366307554,                             ! Version Timestamp
  {6e570117-adff-4b29-8d82-fe27a256d02e}; ! Name of Object 1

