
OS:Version,
  {1c73f23c-ded8-42fe-933d-7b2a39ef24c8}, ! Handle
  0.9.3;                                  ! Version Identifier

OS:SizingPeriod:DesignDay,
  {10de6954-a95a-4d00-adef-e1463fd04f53}, ! Handle
  Lamar Municipal Ann Htg Wind 99.6% Condns WS=>MCDB, ! Name
  5.8,                                    ! Maximum Dry-Bulb Temperature {C}
  0,                                      ! Daily Dry-Bulb Temperature Range {deltaC}
  5.8,                                    ! Humidity Indicating Conditions at Maximum Dry-Bulb {BasedOnField A3}
  88477,                                  ! Barometric Pressure {Pa}
  13.5,                                   ! Wind Speed {m/s}
  220,                                    ! Wind Direction {deg}
  0,                                      ! Sky Clearness
  0,                                      ! Rain Indicator
  0,                                      ! Snow Indicator
  21,                                     ! Day of Month
  12,                                     ! Month
  WinterDesignDay,                        ! Day Type
  0,                                      ! Daylight Saving Time Indicator
  Wetbulb,                                ! Humidity Indicating Type
  ,                                       ! Humidity Indicating Day Schedule Name
  DefaultMultipliers,                     ! Dry-Bulb Temperature Range Modifier Type
  ,                                       ! Dry-Bulb Temperature Range Modifier Schedule Name
  ASHRAEClearSky;                         ! Solar Model Indicator

OS:ComponentData,
  {83ba1d1e-62b2-4997-aa4b-8585aa8c846b}, ! Handle
  Component Data 1,                       ! Name
  {5f7455f5-7d6c-494f-b93d-b6bf8dd324d8}, ! UUID
  {38cd20b4-424b-4ef8-b86b-c3c2446069bd}, ! Version UUID
  1366306716,                             ! Creation Timestamp
  1366306716,                             ! Version Timestamp
  {10de6954-a95a-4d00-adef-e1463fd04f53}; ! Name of Object 1

