
OS:Version,
  {804c05b8-2ca7-46a3-ad36-739f6c0bdfb0}, ! Handle
  0.9.3;                                  ! Version Identifier

OS:SizingPeriod:DesignDay,
  {3b173e4f-4bc7-4e8b-9ddd-370fde163fcb}, ! Handle
  Ely Ann Htg Wind 99% Condns WS=>MCDB,   ! Name
  0.4,                                    ! Maximum Dry-Bulb Temperature {C}
  0,                                      ! Daily Dry-Bulb Temperature Range {deltaC}
  0.4,                                    ! Humidity Indicating Conditions at Maximum Dry-Bulb {BasedOnField A3}
  80397,                                  ! Barometric Pressure {Pa}
  11.4,                                   ! Wind Speed {m/s}
  180,                                    ! Wind Direction {deg}
  0,                                      ! Sky Clearness
  0,                                      ! Rain Indicator
  0,                                      ! Snow Indicator
  21,                                     ! Day of Month
  12,                                     ! Month
  WinterDesignDay,                        ! Day Type
  0,                                      ! Daylight Saving Time Indicator
  Wetbulb,                                ! Humidity Indicating Type
  ,                                       ! Humidity Indicating Day Schedule Name
  DefaultMultipliers,                     ! Dry-Bulb Temperature Range Modifier Type
  ,                                       ! Dry-Bulb Temperature Range Modifier Schedule Name
  ASHRAEClearSky;                         ! Solar Model Indicator

OS:ComponentData,
  {9f4692d0-d0e1-4861-bcda-7df31d8c6f44}, ! Handle
  Component Data 1,                       ! Name
  {e026f569-82b3-4c47-84e0-26bfff327dcd}, ! UUID
  {dce60122-82f8-4860-892b-15bfb6e426d6}, ! Version UUID
  1366309471,                             ! Creation Timestamp
  1366309471,                             ! Version Timestamp
  {3b173e4f-4bc7-4e8b-9ddd-370fde163fcb}; ! Name of Object 1

