
OS:Version,
  {cf017374-24ba-4b24-bfb8-310ccd6c8b8e}, ! Handle
  0.9.3;                                  ! Version Identifier

OS:SizingPeriod:DesignDay,
  {595870e9-b258-4eba-9e8c-47c2a71361f6}, ! Handle
  Ewa/Barbers Point NAS Ann Clg 1% Condns WB=>MDB, ! Name
  29.5,                                   ! Maximum Dry-Bulb Temperature {C}
  8.6,                                    ! Daily Dry-Bulb Temperature Range {deltaC}
  24.7,                                   ! Humidity Indicating Conditions at Maximum Dry-Bulb {BasedOnField A3}
  101145,                                 ! Barometric Pressure {Pa}
  5.1,                                    ! Wind Speed {m/s}
  60,                                     ! Wind Direction {deg}
  0,                                      ! Sky Clearness
  0,                                      ! Rain Indicator
  0,                                      ! Snow Indicator
  21,                                     ! Day of Month
  8,                                      ! Month
  SummerDesignDay,                        ! Day Type
  0,                                      ! Daylight Saving Time Indicator
  Wetbulb,                                ! Humidity Indicating Type
  ,                                       ! Humidity Indicating Day Schedule Name
  DefaultMultipliers,                     ! Dry-Bulb Temperature Range Modifier Type
  ,                                       ! Dry-Bulb Temperature Range Modifier Schedule Name
  ASHRAETau,                              ! Solar Model Indicator
  ,                                       ! Beam Solar Day Schedule Name
  ,                                       ! Diffuse Solar Day Schedule Name
  0.382,                                  ! ASHRAE Taub {dimensionless}
  2.522;                                  ! ASHRAE Taud {dimensionless}

OS:ComponentData,
  {d4b39c4f-505d-410e-b3e3-f6c689e6ba48}, ! Handle
  Component Data 1,                       ! Name
  {b249ee9d-4631-4ff5-a11a-c2e5823adf1f}, ! UUID
  {0e359a06-2bf8-4d94-9557-30ec949e9124}, ! Version UUID
  1366307070,                             ! Creation Timestamp
  1366307070,                             ! Version Timestamp
  {595870e9-b258-4eba-9e8c-47c2a71361f6}; ! Name of Object 1

