
OS:Version,
  {c1cacaaf-6194-485e-aa5e-4d11c6ee2e09}, ! Handle
  0.9.3;                                  ! Version Identifier

OS:SizingPeriod:DesignDay,
  {ab0e49f7-0b3e-4d6f-ba98-bc132c4ecad5}, ! Handle
  Fosston Awos Ann Clg .4% Condns Enth=>MDB, ! Name
  28,                                     ! Maximum Dry-Bulb Temperature {C}
  10.6,                                   ! Daily Dry-Bulb Temperature Range {deltaC}
  71500,                                  ! Humidity Indicating Conditions at Maximum Dry-Bulb {BasedOnField A3}
  96750,                                  ! Barometric Pressure {Pa}
  5.4,                                    ! Wind Speed {m/s}
  160,                                    ! Wind Direction {deg}
  0,                                      ! Sky Clearness
  0,                                      ! Rain Indicator
  0,                                      ! Snow Indicator
  21,                                     ! Day of Month
  7,                                      ! Month
  SummerDesignDay,                        ! Day Type
  0,                                      ! Daylight Saving Time Indicator
  Enthalpy,                               ! Humidity Indicating Type
  ,                                       ! Humidity Indicating Day Schedule Name
  DefaultMultipliers,                     ! Dry-Bulb Temperature Range Modifier Type
  ,                                       ! Dry-Bulb Temperature Range Modifier Schedule Name
  ASHRAETau,                              ! Solar Model Indicator
  ,                                       ! Beam Solar Day Schedule Name
  ,                                       ! Diffuse Solar Day Schedule Name
  0.389,                                  ! ASHRAE Taub {dimensionless}
  2.278;                                  ! ASHRAE Taud {dimensionless}

OS:ComponentData,
  {aa2864f6-fc0d-42e2-808c-9ffe53cd100c}, ! Handle
  Component Data 1,                       ! Name
  {8e9cb708-5dcc-4ffc-8a26-4a852d1c4bcb}, ! UUID
  {2eef87fe-4016-4931-a5f0-d495e8048f6d}, ! Version UUID
  1366308239,                             ! Creation Timestamp
  1366308239,                             ! Version Timestamp
  {ab0e49f7-0b3e-4d6f-ba98-bc132c4ecad5}; ! Name of Object 1

