
OS:Version,
  {0dd10c80-4893-40cd-a004-8c7aa27d4084}, ! Handle
  0.9.3;                                  ! Version Identifier

OS:SizingPeriod:DesignDay,
  {f62fa0ad-bbad-4411-a207-e2a8cf09c9d8}, ! Handle
  Danville Faa Ap Ann Clg .4% Condns DP=>MDB, ! Name
  28.3,                                   ! Maximum Dry-Bulb Temperature {C}
  10.5,                                   ! Daily Dry-Bulb Temperature Range {deltaC}
  23.8,                                   ! Humidity Indicating Conditions at Maximum Dry-Bulb {BasedOnField A3}
  99228,                                  ! Barometric Pressure {Pa}
  3.5,                                    ! Wind Speed {m/s}
  250,                                    ! Wind Direction {deg}
  0,                                      ! Sky Clearness
  0,                                      ! Rain Indicator
  0,                                      ! Snow Indicator
  21,                                     ! Day of Month
  7,                                      ! Month
  SummerDesignDay,                        ! Day Type
  0,                                      ! Daylight Saving Time Indicator
  Dewpoint,                               ! Humidity Indicating Type
  ,                                       ! Humidity Indicating Day Schedule Name
  DefaultMultipliers,                     ! Dry-Bulb Temperature Range Modifier Type
  ,                                       ! Dry-Bulb Temperature Range Modifier Schedule Name
  ASHRAETau,                              ! Solar Model Indicator
  ,                                       ! Beam Solar Day Schedule Name
  ,                                       ! Diffuse Solar Day Schedule Name
  0.559,                                  ! ASHRAE Taub {dimensionless}
  1.76;                                   ! ASHRAE Taud {dimensionless}

OS:ComponentData,
  {b3562538-fdff-41a2-b63c-0caef96cbdf4}, ! Handle
  Component Data 1,                       ! Name
  {302c5e73-8784-4a13-92c2-3d727d788a04}, ! UUID
  {dbab7519-4bc6-4f50-8068-7ead1ece9439}, ! Version UUID
  1366311030,                             ! Creation Timestamp
  1366311030,                             ! Version Timestamp
  {f62fa0ad-bbad-4411-a207-e2a8cf09c9d8}; ! Name of Object 1

