
OS:Version,
  {7e49cced-44d4-4c84-abd3-d6b85b0be11b}, ! Handle
  0.9.3;                                  ! Version Identifier

OS:SizingPeriod:DesignDay,
  {369dd7dd-e7e5-43c9-a223-407e60a2af6d}, ! Handle
  Little Rock Adams Field Ann Hum_n 99% Condns DP=>MCDB, ! Name
  -3.2,                                   ! Maximum Dry-Bulb Temperature {C}
  0,                                      ! Daily Dry-Bulb Temperature Range {deltaC}
  -12.5,                                  ! Humidity Indicating Conditions at Maximum Dry-Bulb {BasedOnField A3}
  100391,                                 ! Barometric Pressure {Pa}
  3.8,                                    ! Wind Speed {m/s}
  350,                                    ! Wind Direction {deg}
  0,                                      ! Sky Clearness
  0,                                      ! Rain Indicator
  0,                                      ! Snow Indicator
  21,                                     ! Day of Month
  1,                                      ! Month
  WinterDesignDay,                        ! Day Type
  0,                                      ! Daylight Saving Time Indicator
  Dewpoint,                               ! Humidity Indicating Type
  ,                                       ! Humidity Indicating Day Schedule Name
  DefaultMultipliers,                     ! Dry-Bulb Temperature Range Modifier Type
  ,                                       ! Dry-Bulb Temperature Range Modifier Schedule Name
  ASHRAEClearSky;                         ! Solar Model Indicator

OS:ComponentData,
  {15aabf7c-d755-45f8-9f7f-66bd8cb2899b}, ! Handle
  Component Data 1,                       ! Name
  {8599728b-09c1-44c4-bc53-73b83ae0f960}, ! UUID
  {154c69d2-7993-4f56-ba02-ef5104c4b6ef}, ! Version UUID
  1366306229,                             ! Creation Timestamp
  1366306229,                             ! Version Timestamp
  {369dd7dd-e7e5-43c9-a223-407e60a2af6d}; ! Name of Object 1

