
OS:Version,
  {c4ebc5e2-83be-4759-bfb6-3b38fa6e7bc2}, ! Handle
  0.9.3;                                  ! Version Identifier

OS:SizingPeriod:DesignDay,
  {b1a4f55c-7972-49cd-bd5f-22698b1cd78f}, ! Handle
  Antigo Lang Awos Ann Clg 1% Condns DP=>MDB, ! Name
  25.1,                                   ! Maximum Dry-Bulb Temperature {C}
  12.1,                                   ! Daily Dry-Bulb Temperature Range {deltaC}
  22.3,                                   ! Humidity Indicating Conditions at Maximum Dry-Bulb {BasedOnField A3}
  95874,                                  ! Barometric Pressure {Pa}
  4.8,                                    ! Wind Speed {m/s}
  210,                                    ! Wind Direction {deg}
  0,                                      ! Sky Clearness
  0,                                      ! Rain Indicator
  0,                                      ! Snow Indicator
  21,                                     ! Day of Month
  7,                                      ! Month
  SummerDesignDay,                        ! Day Type
  0,                                      ! Daylight Saving Time Indicator
  Dewpoint,                               ! Humidity Indicating Type
  ,                                       ! Humidity Indicating Day Schedule Name
  DefaultMultipliers,                     ! Dry-Bulb Temperature Range Modifier Type
  ,                                       ! Dry-Bulb Temperature Range Modifier Schedule Name
  ASHRAETau,                              ! Solar Model Indicator
  ,                                       ! Beam Solar Day Schedule Name
  ,                                       ! Diffuse Solar Day Schedule Name
  0.403,                                  ! ASHRAE Taub {dimensionless}
  2.215;                                  ! ASHRAE Taud {dimensionless}

OS:ComponentData,
  {e8bf6e4c-0ac5-4edc-9143-9034a687fc85}, ! Handle
  Component Data 1,                       ! Name
  {bfbefe73-0b00-48ff-9175-5b88f4314c08}, ! UUID
  {0238c7e1-011e-4685-9f50-6bc137581220}, ! Version UUID
  1366311480,                             ! Creation Timestamp
  1366311480,                             ! Version Timestamp
  {b1a4f55c-7972-49cd-bd5f-22698b1cd78f}; ! Name of Object 1

