
OS:Version,
  {38e1adfe-ae64-46be-8316-804c483eefb8}, ! Handle
  0.9.3;                                  ! Version Identifier

OS:SizingPeriod:DesignDay,
  {e3bc841e-8ea0-4921-94c3-0cae0cdb6e91}, ! Handle
  Clayton Ann Clg .4% Condns DB=>MWB,     ! Name
  34.6,                                   ! Maximum Dry-Bulb Temperature {C}
  14.7,                                   ! Daily Dry-Bulb Temperature Range {deltaC}
  17.1,                                   ! Humidity Indicating Conditions at Maximum Dry-Bulb {BasedOnField A3}
  84442,                                  ! Barometric Pressure {Pa}
  6.2,                                    ! Wind Speed {m/s}
  190,                                    ! Wind Direction {deg}
  0,                                      ! Sky Clearness
  0,                                      ! Rain Indicator
  0,                                      ! Snow Indicator
  21,                                     ! Day of Month
  7,                                      ! Month
  SummerDesignDay,                        ! Day Type
  0,                                      ! Daylight Saving Time Indicator
  Wetbulb,                                ! Humidity Indicating Type
  ,                                       ! Humidity Indicating Day Schedule Name
  DefaultMultipliers,                     ! Dry-Bulb Temperature Range Modifier Type
  ,                                       ! Dry-Bulb Temperature Range Modifier Schedule Name
  ASHRAETau,                              ! Solar Model Indicator
  ,                                       ! Beam Solar Day Schedule Name
  ,                                       ! Diffuse Solar Day Schedule Name
  0.399,                                  ! ASHRAE Taub {dimensionless}
  2.129;                                  ! ASHRAE Taud {dimensionless}

OS:ComponentData,
  {132bc44a-c1ff-47e1-b0fc-ae80e4777461}, ! Handle
  Component Data 1,                       ! Name
  {3e6665d3-bb63-4c27-b220-f40571e4a7e5}, ! UUID
  {c6370dee-87f0-4a9e-a77c-c7064576257e}, ! Version UUID
  1366309380,                             ! Creation Timestamp
  1366309380,                             ! Version Timestamp
  {e3bc841e-8ea0-4921-94c3-0cae0cdb6e91}; ! Name of Object 1

