
OS:Version,
  {e05f9f9d-c78c-44b7-808d-a6aa515e5833}, ! Handle
  0.9.3;                                  ! Version Identifier

OS:SizingPeriod:DesignDay,
  {d4a83925-f7c0-48ca-abf2-cf102b8186b1}, ! Handle
  ASTORIA Ann Clg 1% Condns DB=>MWB,      ! Name
  22.4,                                   ! Maximum Dry-Bulb Temperature {C}
  7.9,                                    ! Daily Dry-Bulb Temperature Range {deltaC}
  16.7,                                   ! Humidity Indicating Conditions at Maximum Dry-Bulb {BasedOnField A3}
  101241,                                 ! Barometric Pressure {Pa}
  5.1,                                    ! Wind Speed {m/s}
  310,                                    ! Wind Direction {deg}
  0,                                      ! Sky Clearness
  0,                                      ! Rain Indicator
  0,                                      ! Snow Indicator
  21,                                     ! Day of Month
  8,                                      ! Month
  SummerDesignDay,                        ! Day Type
  0,                                      ! Daylight Saving Time Indicator
  Wetbulb,                                ! Humidity Indicating Type
  ,                                       ! Humidity Indicating Day Schedule Name
  DefaultMultipliers,                     ! Dry-Bulb Temperature Range Modifier Type
  ,                                       ! Dry-Bulb Temperature Range Modifier Schedule Name
  ASHRAETau,                              ! Solar Model Indicator
  ,                                       ! Beam Solar Day Schedule Name
  ,                                       ! Diffuse Solar Day Schedule Name
  0.355,                                  ! ASHRAE Taub {dimensionless}
  2.571;                                  ! ASHRAE Taud {dimensionless}

OS:ComponentData,
  {3d478321-d1b8-4cba-b254-7c7d068c5346}, ! Handle
  Component Data 1,                       ! Name
  {daa0b325-ee5d-4781-abab-e4afcbdfa84a}, ! UUID
  {57f4dda3-10ce-4ce0-9388-ca9311c0d2e0}, ! Version UUID
  1366309967,                             ! Creation Timestamp
  1366309967,                             ! Version Timestamp
  {d4a83925-f7c0-48ca-abf2-cf102b8186b1}; ! Name of Object 1

