
OS:Version,
  {85add7bd-d97a-4e20-a692-38c479330cef}, ! Handle
  0.9.3;                                  ! Version Identifier

OS:SizingPeriod:DesignDay,
  {5ba44758-123f-42a3-a797-11e76809d300}, ! Handle
  Fort Bragg Simmons Aaf Ann Clg 2% Condns DP=>MDB, ! Name
  27.7,                                   ! Maximum Dry-Bulb Temperature {C}
  9.9,                                    ! Daily Dry-Bulb Temperature Range {deltaC}
  23.5,                                   ! Humidity Indicating Conditions at Maximum Dry-Bulb {BasedOnField A3}
  100213,                                 ! Barometric Pressure {Pa}
  3,                                      ! Wind Speed {m/s}
  210,                                    ! Wind Direction {deg}
  0,                                      ! Sky Clearness
  0,                                      ! Rain Indicator
  0,                                      ! Snow Indicator
  21,                                     ! Day of Month
  7,                                      ! Month
  SummerDesignDay,                        ! Day Type
  0,                                      ! Daylight Saving Time Indicator
  Dewpoint,                               ! Humidity Indicating Type
  ,                                       ! Humidity Indicating Day Schedule Name
  DefaultMultipliers,                     ! Dry-Bulb Temperature Range Modifier Type
  ,                                       ! Dry-Bulb Temperature Range Modifier Schedule Name
  ASHRAETau,                              ! Solar Model Indicator
  ,                                       ! Beam Solar Day Schedule Name
  ,                                       ! Diffuse Solar Day Schedule Name
  0.582,                                  ! ASHRAE Taub {dimensionless}
  1.716;                                  ! ASHRAE Taud {dimensionless}

OS:ComponentData,
  {bc8483d2-d47e-4c97-85f5-d385a229d643}, ! Handle
  Component Data 1,                       ! Name
  {8f4bfba6-bf4d-484b-b5ba-27083c1a4784}, ! UUID
  {f64a3060-c250-40a3-b66e-eac2318c03fd}, ! Version UUID
  1366308920,                             ! Creation Timestamp
  1366308920,                             ! Version Timestamp
  {5ba44758-123f-42a3-a797-11e76809d300}; ! Name of Object 1

