
OS:Version,
  {ea794e9e-18a7-47ce-931b-835adee36ba8}, ! Handle
  0.9.3;                                  ! Version Identifier

OS:SizingPeriod:DesignDay,
  {95d37641-b151-44a7-a2d4-b601979f7ded}, ! Handle
  Franklin Ann Clg .4% Condns DB=>MWB,    ! Name
  29.5,                                   ! Maximum Dry-Bulb Temperature {C}
  10.1,                                   ! Daily Dry-Bulb Temperature Range {deltaC}
  21.7,                                   ! Humidity Indicating Conditions at Maximum Dry-Bulb {BasedOnField A3}
  95805,                                  ! Barometric Pressure {Pa}
  3.5,                                    ! Wind Speed {m/s}
  200,                                    ! Wind Direction {deg}
  0,                                      ! Sky Clearness
  0,                                      ! Rain Indicator
  0,                                      ! Snow Indicator
  21,                                     ! Day of Month
  7,                                      ! Month
  SummerDesignDay,                        ! Day Type
  0,                                      ! Daylight Saving Time Indicator
  Wetbulb,                                ! Humidity Indicating Type
  ,                                       ! Humidity Indicating Day Schedule Name
  DefaultMultipliers,                     ! Dry-Bulb Temperature Range Modifier Type
  ,                                       ! Dry-Bulb Temperature Range Modifier Schedule Name
  ASHRAETau,                              ! Solar Model Indicator
  ,                                       ! Beam Solar Day Schedule Name
  ,                                       ! Diffuse Solar Day Schedule Name
  0.434,                                  ! ASHRAE Taub {dimensionless}
  2.094;                                  ! ASHRAE Taud {dimensionless}

OS:ComponentData,
  {2af4c502-c68e-4521-8b9e-3ca357e44b0d}, ! Handle
  Component Data 1,                       ! Name
  {395630e6-8b20-4576-9588-991e62b0ebc3}, ! UUID
  {35c64179-4fd0-41f9-b62b-51defd7a2e29}, ! Version UUID
  1366310178,                             ! Creation Timestamp
  1366310178,                             ! Version Timestamp
  {95d37641-b151-44a7-a2d4-b601979f7ded}; ! Name of Object 1

