
OS:Version,
  {21c9858e-c145-4e82-bc8c-3b2756fe4aea}, ! Handle
  0.9.3;                                  ! Version Identifier

OS:SizingPeriod:DesignDay,
  {2bc318fe-bafd-456f-9a24-977ceb7833cd}, ! Handle
  Hartford/Brainard Fiel Ann Clg .4% Condns WB=>MDB, ! Name
  30.4,                                   ! Maximum Dry-Bulb Temperature {C}
  11.4,                                   ! Daily Dry-Bulb Temperature Range {deltaC}
  24.6,                                   ! Humidity Indicating Conditions at Maximum Dry-Bulb {BasedOnField A3}
  101253,                                 ! Barometric Pressure {Pa}
  4.5,                                    ! Wind Speed {m/s}
  220,                                    ! Wind Direction {deg}
  0,                                      ! Sky Clearness
  0,                                      ! Rain Indicator
  0,                                      ! Snow Indicator
  21,                                     ! Day of Month
  7,                                      ! Month
  SummerDesignDay,                        ! Day Type
  0,                                      ! Daylight Saving Time Indicator
  Wetbulb,                                ! Humidity Indicating Type
  ,                                       ! Humidity Indicating Day Schedule Name
  DefaultMultipliers,                     ! Dry-Bulb Temperature Range Modifier Type
  ,                                       ! Dry-Bulb Temperature Range Modifier Schedule Name
  ASHRAETau,                              ! Solar Model Indicator
  ,                                       ! Beam Solar Day Schedule Name
  ,                                       ! Diffuse Solar Day Schedule Name
  0.486,                                  ! ASHRAE Taub {dimensionless}
  1.943;                                  ! ASHRAE Taud {dimensionless}

OS:ComponentData,
  {01f8efd2-37a7-402a-bc94-fa9371a0efb1}, ! Handle
  Component Data 1,                       ! Name
  {50a6fae3-0a0f-47d2-9159-7f009f7f4f1a}, ! UUID
  {4d476327-9804-4677-b624-22f3b20545de}, ! Version UUID
  1366306753,                             ! Creation Timestamp
  1366306753,                             ! Version Timestamp
  {2bc318fe-bafd-456f-9a24-977ceb7833cd}; ! Name of Object 1

