
OS:Version,
  {def30976-970a-4ea5-aca4-74dff5984c1d}, ! Handle
  0.9.3;                                  ! Version Identifier

OS:SizingPeriod:DesignDay,
  {af7f2cca-7fa1-458b-ae06-bbb7e54f437e}, ! Handle
  Gulkana Ann Clg 2% Condns DB=>MWB,      ! Name
  21.2,                                   ! Maximum Dry-Bulb Temperature {C}
  11.7,                                   ! Daily Dry-Bulb Temperature Range {deltaC}
  12.6,                                   ! Humidity Indicating Conditions at Maximum Dry-Bulb {BasedOnField A3}
  95679,                                  ! Barometric Pressure {Pa}
  2.6,                                    ! Wind Speed {m/s}
  160,                                    ! Wind Direction {deg}
  0,                                      ! Sky Clearness
  0,                                      ! Rain Indicator
  0,                                      ! Snow Indicator
  21,                                     ! Day of Month
  7,                                      ! Month
  SummerDesignDay,                        ! Day Type
  0,                                      ! Daylight Saving Time Indicator
  Wetbulb,                                ! Humidity Indicating Type
  ,                                       ! Humidity Indicating Day Schedule Name
  DefaultMultipliers,                     ! Dry-Bulb Temperature Range Modifier Type
  ,                                       ! Dry-Bulb Temperature Range Modifier Schedule Name
  ASHRAETau,                              ! Solar Model Indicator
  ,                                       ! Beam Solar Day Schedule Name
  ,                                       ! Diffuse Solar Day Schedule Name
  0.385,                                  ! ASHRAE Taub {dimensionless}
  2.111;                                  ! ASHRAE Taud {dimensionless}

OS:ComponentData,
  {defbb262-c673-4fdb-8333-7dc71784ba71}, ! Handle
  Component Data 1,                       ! Name
  {5ba5be82-d45e-4eb1-9663-612c1207c1ca}, ! UUID
  {f2147840-7ee2-4bf6-84ef-3e4e92d79dd0}, ! Version UUID
  1366305282,                             ! Creation Timestamp
  1366305282,                             ! Version Timestamp
  {af7f2cca-7fa1-458b-ae06-bbb7e54f437e}; ! Name of Object 1

