
OS:Version,
  {52e3455b-278c-430d-97dc-4206f40454bb}, ! Handle
  0.9.3;                                  ! Version Identifier

OS:SizingPeriod:DesignDay,
  {6d00b890-bec0-465b-8000-678bc507bea7}, ! Handle
  Lakehurst NAS Ann Clg .4% Condns DP=>MDB, ! Name
  28.5,                                   ! Maximum Dry-Bulb Temperature {C}
  10.6,                                   ! Daily Dry-Bulb Temperature Range {deltaC}
  24.7,                                   ! Humidity Indicating Conditions at Maximum Dry-Bulb {BasedOnField A3}
  100917,                                 ! Barometric Pressure {Pa}
  4,                                      ! Wind Speed {m/s}
  240,                                    ! Wind Direction {deg}
  0,                                      ! Sky Clearness
  0,                                      ! Rain Indicator
  0,                                      ! Snow Indicator
  21,                                     ! Day of Month
  7,                                      ! Month
  SummerDesignDay,                        ! Day Type
  0,                                      ! Daylight Saving Time Indicator
  Dewpoint,                               ! Humidity Indicating Type
  ,                                       ! Humidity Indicating Day Schedule Name
  DefaultMultipliers,                     ! Dry-Bulb Temperature Range Modifier Type
  ,                                       ! Dry-Bulb Temperature Range Modifier Schedule Name
  ASHRAETau,                              ! Solar Model Indicator
  ,                                       ! Beam Solar Day Schedule Name
  ,                                       ! Diffuse Solar Day Schedule Name
  0.539,                                  ! ASHRAE Taub {dimensionless}
  1.807;                                  ! ASHRAE Taud {dimensionless}

OS:ComponentData,
  {a3002766-94fd-454d-8fa8-f79c2def121b}, ! Handle
  Component Data 1,                       ! Name
  {83aedd64-82c8-47b3-9ad9-b4f37c145093}, ! UUID
  {b8f4669a-c052-473a-8d86-25ba1cd4f8e9}, ! Version UUID
  1366309309,                             ! Creation Timestamp
  1366309309,                             ! Version Timestamp
  {6d00b890-bec0-465b-8000-678bc507bea7}; ! Name of Object 1

