
OS:Version,
  {98b45898-7685-4cdf-a6cd-0117a95fa2da}, ! Handle
  0.9.3;                                  ! Version Identifier

OS:SizingPeriod:DesignDay,
  {db78f16e-845b-4f45-8475-c21d863dc83d}, ! Handle
  Cedar City Ann Clg 2% Condns Enth=>MDB, ! Name
  26.7,                                   ! Maximum Dry-Bulb Temperature {C}
  16.7,                                   ! Daily Dry-Bulb Temperature Range {deltaC}
  51400,                                  ! Humidity Indicating Conditions at Maximum Dry-Bulb {BasedOnField A3}
  82359,                                  ! Barometric Pressure {Pa}
  5,                                      ! Wind Speed {m/s}
  210,                                    ! Wind Direction {deg}
  0,                                      ! Sky Clearness
  0,                                      ! Rain Indicator
  0,                                      ! Snow Indicator
  21,                                     ! Day of Month
  7,                                      ! Month
  SummerDesignDay,                        ! Day Type
  0,                                      ! Daylight Saving Time Indicator
  Enthalpy,                               ! Humidity Indicating Type
  ,                                       ! Humidity Indicating Day Schedule Name
  DefaultMultipliers,                     ! Dry-Bulb Temperature Range Modifier Type
  ,                                       ! Dry-Bulb Temperature Range Modifier Schedule Name
  ASHRAETau,                              ! Solar Model Indicator
  ,                                       ! Beam Solar Day Schedule Name
  ,                                       ! Diffuse Solar Day Schedule Name
  0.415,                                  ! ASHRAE Taub {dimensionless}
  2.019;                                  ! ASHRAE Taud {dimensionless}

OS:ComponentData,
  {d8aa1f98-ff73-4f69-88df-c161e2e5b206}, ! Handle
  Component Data 1,                       ! Name
  {87337f8b-923f-4037-8678-7f211f17fe34}, ! UUID
  {6d17346d-1d8d-40a3-bb3e-51e3565af7bf}, ! Version UUID
  1366310956,                             ! Creation Timestamp
  1366310956,                             ! Version Timestamp
  {db78f16e-845b-4f45-8475-c21d863dc83d}; ! Name of Object 1

