
OS:Version,
  {896729b7-a6dd-46fd-8339-1a15b9c530a7}, ! Handle
  0.9.3;                                  ! Version Identifier

OS:SizingPeriod:DesignDay,
  {224320af-5820-44b1-b52b-f2b806dd7d69}, ! Handle
  LITTLE_ROCK Ann Clg 2% Condns DP=>MDB,  ! Name
  28.8,                                   ! Maximum Dry-Bulb Temperature {C}
  11.1,                                   ! Daily Dry-Bulb Temperature Range {deltaC}
  24.6,                                   ! Humidity Indicating Conditions at Maximum Dry-Bulb {BasedOnField A3}
  100356,                                 ! Barometric Pressure {Pa}
  3.5,                                    ! Wind Speed {m/s}
  190,                                    ! Wind Direction {deg}
  0,                                      ! Sky Clearness
  0,                                      ! Rain Indicator
  0,                                      ! Snow Indicator
  21,                                     ! Day of Month
  7,                                      ! Month
  SummerDesignDay,                        ! Day Type
  0,                                      ! Daylight Saving Time Indicator
  Dewpoint,                               ! Humidity Indicating Type
  ,                                       ! Humidity Indicating Day Schedule Name
  DefaultMultipliers,                     ! Dry-Bulb Temperature Range Modifier Type
  ,                                       ! Dry-Bulb Temperature Range Modifier Schedule Name
  ASHRAETau,                              ! Solar Model Indicator
  ,                                       ! Beam Solar Day Schedule Name
  ,                                       ! Diffuse Solar Day Schedule Name
  0.512,                                  ! ASHRAE Taub {dimensionless}
  1.909;                                  ! ASHRAE Taud {dimensionless}

OS:ComponentData,
  {16d3525c-8675-4bf9-b7ab-0a91c3703db2}, ! Handle
  Component Data 1,                       ! Name
  {96d40a89-8817-4b0c-aa95-a9c07c49226d}, ! UUID
  {0ada026a-fa9c-4732-b3d1-a265cdb90764}, ! Version UUID
  1366306232,                             ! Creation Timestamp
  1366306232,                             ! Version Timestamp
  {224320af-5820-44b1-b52b-f2b806dd7d69}; ! Name of Object 1

