
OS:Version,
  {50c9e573-eab6-4c3e-8f54-248e617a2329}, ! Handle
  0.9.3;                                  ! Version Identifier

OS:SizingPeriod:DesignDay,
  {7a80ba44-54d9-4176-b8b8-246503a6dffe}, ! Handle
  Aurora State Ann Htg Wind 99.6% Condns WS=>MCDB, ! Name
  10,                                     ! Maximum Dry-Bulb Temperature {C}
  0,                                      ! Daily Dry-Bulb Temperature Range {deltaC}
  10,                                     ! Humidity Indicating Conditions at Maximum Dry-Bulb {BasedOnField A3}
  100606,                                 ! Barometric Pressure {Pa}
  10.4,                                   ! Wind Speed {m/s}
  0,                                      ! Wind Direction {deg}
  0,                                      ! Sky Clearness
  0,                                      ! Rain Indicator
  0,                                      ! Snow Indicator
  21,                                     ! Day of Month
  12,                                     ! Month
  WinterDesignDay,                        ! Day Type
  0,                                      ! Daylight Saving Time Indicator
  Wetbulb,                                ! Humidity Indicating Type
  ,                                       ! Humidity Indicating Day Schedule Name
  DefaultMultipliers,                     ! Dry-Bulb Temperature Range Modifier Type
  ,                                       ! Dry-Bulb Temperature Range Modifier Schedule Name
  ASHRAEClearSky;                         ! Solar Model Indicator

OS:ComponentData,
  {1e0f64ca-8b77-4217-b5c9-39e1c7f1dd9a}, ! Handle
  Component Data 1,                       ! Name
  {c8ec4267-e3c7-4b14-9e9b-6b13e5441da9}, ! UUID
  {e651dcfc-ea4a-4f3e-ad15-fb73364be09c}, ! Version UUID
  1366309981,                             ! Creation Timestamp
  1366309981,                             ! Version Timestamp
  {7a80ba44-54d9-4176-b8b8-246503a6dffe}; ! Name of Object 1

