
OS:Version,
  {ad7812d6-1989-4c79-b795-babcfc7a5422}, ! Handle
  0.9.3;                                  ! Version Identifier

OS:SizingPeriod:DesignDay,
  {675708ba-4ef9-4a56-a1be-e8581464f51d}, ! Handle
  LYNCHBURG Ann Clg 2% Condns Enth=>MDB,  ! Name
  28.8,                                   ! Maximum Dry-Bulb Temperature {C}
  10.7,                                   ! Daily Dry-Bulb Temperature Range {deltaC}
  71500,                                  ! Humidity Indicating Conditions at Maximum Dry-Bulb {BasedOnField A3}
  98018,                                  ! Barometric Pressure {Pa}
  3.3,                                    ! Wind Speed {m/s}
  240,                                    ! Wind Direction {deg}
  0,                                      ! Sky Clearness
  0,                                      ! Rain Indicator
  0,                                      ! Snow Indicator
  21,                                     ! Day of Month
  7,                                      ! Month
  SummerDesignDay,                        ! Day Type
  0,                                      ! Daylight Saving Time Indicator
  Enthalpy,                               ! Humidity Indicating Type
  ,                                       ! Humidity Indicating Day Schedule Name
  DefaultMultipliers,                     ! Dry-Bulb Temperature Range Modifier Type
  ,                                       ! Dry-Bulb Temperature Range Modifier Schedule Name
  ASHRAETau,                              ! Solar Model Indicator
  ,                                       ! Beam Solar Day Schedule Name
  ,                                       ! Diffuse Solar Day Schedule Name
  0.531,                                  ! ASHRAE Taub {dimensionless}
  1.818;                                  ! ASHRAE Taud {dimensionless}

OS:ComponentData,
  {dd0a505a-c125-4a81-8b3a-4ce0feb37ee7}, ! Handle
  Component Data 1,                       ! Name
  {bc037702-c34b-4484-9b98-c03d35fbe1ae}, ! UUID
  {558c73ca-ac9f-48ec-a867-c1d248ec3619}, ! Version UUID
  1366311085,                             ! Creation Timestamp
  1366311085,                             ! Version Timestamp
  {675708ba-4ef9-4a56-a1be-e8581464f51d}; ! Name of Object 1

