
OS:Version,
  {9a78d4a4-254c-4619-8679-b9e281310e71}, ! Handle
  0.9.3;                                  ! Version Identifier

OS:SizingPeriod:DesignDay,
  {8a4a19ea-f6ae-4f19-a548-9c03c8603e76}, ! Handle
  Hunter Aaf Ann Clg 1% Condns Enth=>MDB, ! Name
  31.4,                                   ! Maximum Dry-Bulb Temperature {C}
  9.8,                                    ! Daily Dry-Bulb Temperature Range {deltaC}
  82700,                                  ! Humidity Indicating Conditions at Maximum Dry-Bulb {BasedOnField A3}
  101169,                                 ! Barometric Pressure {Pa}
  3.5,                                    ! Wind Speed {m/s}
  260,                                    ! Wind Direction {deg}
  0,                                      ! Sky Clearness
  0,                                      ! Rain Indicator
  0,                                      ! Snow Indicator
  21,                                     ! Day of Month
  7,                                      ! Month
  SummerDesignDay,                        ! Day Type
  0,                                      ! Daylight Saving Time Indicator
  Enthalpy,                               ! Humidity Indicating Type
  ,                                       ! Humidity Indicating Day Schedule Name
  DefaultMultipliers,                     ! Dry-Bulb Temperature Range Modifier Type
  ,                                       ! Dry-Bulb Temperature Range Modifier Schedule Name
  ASHRAETau,                              ! Solar Model Indicator
  ,                                       ! Beam Solar Day Schedule Name
  ,                                       ! Diffuse Solar Day Schedule Name
  0.556,                                  ! ASHRAE Taub {dimensionless}
  1.82;                                   ! ASHRAE Taud {dimensionless}

OS:ComponentData,
  {4d5605b8-4a2a-4fe3-a5fd-509789a991d0}, ! Handle
  Component Data 1,                       ! Name
  {9acc0d13-b0c0-46d9-8e40-44aff3413ed7}, ! UUID
  {04310a4d-d5d0-461f-b5ca-875f10f502ac}, ! Version UUID
  1366307045,                             ! Creation Timestamp
  1366307045,                             ! Version Timestamp
  {8a4a19ea-f6ae-4f19-a548-9c03c8603e76}; ! Name of Object 1

