
OS:Version,
  {08a4f021-9bc3-478f-9e79-9c6fd9a7f4cf}, ! Handle
  0.9.3;                                  ! Version Identifier

OS:SizingPeriod:DesignDay,
  {425eb945-f750-455c-87e5-12b5e7c4d461}, ! Handle
  Las Vegas Mccarran Intl Ap Ann Clg 2% Condns WB=>MDB, ! Name
  34.4,                                   ! Maximum Dry-Bulb Temperature {C}
  13,                                     ! Daily Dry-Bulb Temperature Range {deltaC}
  21.1,                                   ! Humidity Indicating Conditions at Maximum Dry-Bulb {BasedOnField A3}
  93779,                                  ! Barometric Pressure {Pa}
  4.9,                                    ! Wind Speed {m/s}
  230,                                    ! Wind Direction {deg}
  0,                                      ! Sky Clearness
  0,                                      ! Rain Indicator
  0,                                      ! Snow Indicator
  21,                                     ! Day of Month
  7,                                      ! Month
  SummerDesignDay,                        ! Day Type
  0,                                      ! Daylight Saving Time Indicator
  Wetbulb,                                ! Humidity Indicating Type
  ,                                       ! Humidity Indicating Day Schedule Name
  DefaultMultipliers,                     ! Dry-Bulb Temperature Range Modifier Type
  ,                                       ! Dry-Bulb Temperature Range Modifier Schedule Name
  ASHRAETau,                              ! Solar Model Indicator
  ,                                       ! Beam Solar Day Schedule Name
  ,                                       ! Diffuse Solar Day Schedule Name
  0.55,                                   ! ASHRAE Taub {dimensionless}
  1.674;                                  ! ASHRAE Taud {dimensionless}

OS:ComponentData,
  {1c7b0546-2c39-448b-acc7-453507605788}, ! Handle
  Component Data 1,                       ! Name
  {7f34f0fc-6cd0-4ece-9cd6-49e9f69dc7c0}, ! UUID
  {082c3229-0e64-4e4c-8a30-ab735bc4e9f2}, ! Version UUID
  1366309502,                             ! Creation Timestamp
  1366309502,                             ! Version Timestamp
  {425eb945-f750-455c-87e5-12b5e7c4d461}; ! Name of Object 1

