
OS:Version,
  {1e1c0e9c-f35c-4b31-bff3-aeee2fcf0866}, ! Handle
  0.9.3;                                  ! Version Identifier

OS:SizingPeriod:DesignDay,
  {65ba0c9d-8d67-4f7d-8288-3d2ad3ab85aa}, ! Handle
  Carlsbad Palomar Ann Clg 2% Condns DB=>MWB, ! Name
  24.1,                                   ! Maximum Dry-Bulb Temperature {C}
  5.3,                                    ! Daily Dry-Bulb Temperature Range {deltaC}
  18.1,                                   ! Humidity Indicating Conditions at Maximum Dry-Bulb {BasedOnField A3}
  100129,                                 ! Barometric Pressure {Pa}
  3.3,                                    ! Wind Speed {m/s}
  250,                                    ! Wind Direction {deg}
  0,                                      ! Sky Clearness
  0,                                      ! Rain Indicator
  0,                                      ! Snow Indicator
  21,                                     ! Day of Month
  8,                                      ! Month
  SummerDesignDay,                        ! Day Type
  0,                                      ! Daylight Saving Time Indicator
  Wetbulb,                                ! Humidity Indicating Type
  ,                                       ! Humidity Indicating Day Schedule Name
  DefaultMultipliers,                     ! Dry-Bulb Temperature Range Modifier Type
  ,                                       ! Dry-Bulb Temperature Range Modifier Schedule Name
  ASHRAETau,                              ! Solar Model Indicator
  ,                                       ! Beam Solar Day Schedule Name
  ,                                       ! Diffuse Solar Day Schedule Name
  0.423,                                  ! ASHRAE Taub {dimensionless}
  2.195;                                  ! ASHRAE Taud {dimensionless}

OS:ComponentData,
  {ecde9145-5fc9-4a24-af72-2f021a9e9559}, ! Handle
  Component Data 1,                       ! Name
  {1d8ffb41-425a-4e3f-979a-5f236ddb06a1}, ! UUID
  {46507f05-98ce-42ad-8e9d-907174085c6f}, ! Version UUID
  1366306402,                             ! Creation Timestamp
  1366306402,                             ! Version Timestamp
  {65ba0c9d-8d67-4f7d-8288-3d2ad3ab85aa}; ! Name of Object 1

