
OS:Version,
  {a704e65f-e23a-4830-b34d-ff2ce35de3f3}, ! Handle
  0.9.3;                                  ! Version Identifier

OS:SizingPeriod:DesignDay,
  {0a779880-d6ce-40dd-991b-a62fccfb2f0a}, ! Handle
  Detroit Willow Run Ap Ann Clg 1% Condns Enth=>MDB, ! Name
  28.8,                                   ! Maximum Dry-Bulb Temperature {C}
  11.2,                                   ! Daily Dry-Bulb Temperature Range {deltaC}
  72900,                                  ! Humidity Indicating Conditions at Maximum Dry-Bulb {BasedOnField A3}
  98733,                                  ! Barometric Pressure {Pa}
  5.3,                                    ! Wind Speed {m/s}
  230,                                    ! Wind Direction {deg}
  0,                                      ! Sky Clearness
  0,                                      ! Rain Indicator
  0,                                      ! Snow Indicator
  21,                                     ! Day of Month
  7,                                      ! Month
  SummerDesignDay,                        ! Day Type
  0,                                      ! Daylight Saving Time Indicator
  Enthalpy,                               ! Humidity Indicating Type
  ,                                       ! Humidity Indicating Day Schedule Name
  DefaultMultipliers,                     ! Dry-Bulb Temperature Range Modifier Type
  ,                                       ! Dry-Bulb Temperature Range Modifier Schedule Name
  ASHRAETau,                              ! Solar Model Indicator
  ,                                       ! Beam Solar Day Schedule Name
  ,                                       ! Diffuse Solar Day Schedule Name
  0.465,                                  ! ASHRAE Taub {dimensionless}
  1.99;                                   ! ASHRAE Taud {dimensionless}

OS:ComponentData,
  {f6272a95-bc49-4c78-b9f6-3a468869a122}, ! Handle
  Component Data 1,                       ! Name
  {fe7109ff-212a-4c10-abc8-f6ec5e4233a7}, ! UUID
  {beef893b-8a61-4107-9839-1470059c3663}, ! Version UUID
  1366307985,                             ! Creation Timestamp
  1366307985,                             ! Version Timestamp
  {0a779880-d6ce-40dd-991b-a62fccfb2f0a}; ! Name of Object 1

