
OS:Version,
  {441811ce-9b52-419a-958e-574347b602f9}, ! Handle
  0.9.3;                                  ! Version Identifier

OS:SizingPeriod:DesignDay,
  {38773b10-62fa-45bd-92f0-7aa09fac0862}, ! Handle
  Jackson Ann Htg Wind 99% Condns WS=>MCDB, ! Name
  9,                                      ! Maximum Dry-Bulb Temperature {C}
  0,                                      ! Daily Dry-Bulb Temperature Range {deltaC}
  9,                                      ! Humidity Indicating Conditions at Maximum Dry-Bulb {BasedOnField A3}
  100118,                                 ! Barometric Pressure {Pa}
  8.9,                                    ! Wind Speed {m/s}
  350,                                    ! Wind Direction {deg}
  0,                                      ! Sky Clearness
  0,                                      ! Rain Indicator
  0,                                      ! Snow Indicator
  21,                                     ! Day of Month
  1,                                      ! Month
  WinterDesignDay,                        ! Day Type
  0,                                      ! Daylight Saving Time Indicator
  Wetbulb,                                ! Humidity Indicating Type
  ,                                       ! Humidity Indicating Day Schedule Name
  DefaultMultipliers,                     ! Dry-Bulb Temperature Range Modifier Type
  ,                                       ! Dry-Bulb Temperature Range Modifier Schedule Name
  ASHRAEClearSky;                         ! Solar Model Indicator

OS:ComponentData,
  {d38d8473-c338-4c71-9296-b81c5f7cd420}, ! Handle
  Component Data 1,                       ! Name
  {19ee7a53-9273-4891-988d-3a37dfe7fc0f}, ! UUID
  {47f7d49c-c732-4fef-a1d7-332967cc5e91}, ! Version UUID
  1366308644,                             ! Creation Timestamp
  1366308644,                             ! Version Timestamp
  {38773b10-62fa-45bd-92f0-7aa09fac0862}; ! Name of Object 1

