
OS:Version,
  {c56bfbfc-2478-495e-89f0-65d1d2efbdbf}, ! Handle
  0.9.3;                                  ! Version Identifier

OS:SizingPeriod:DesignDay,
  {b7add7e5-09e1-4d1b-8f5d-010357d4d702}, ! Handle
  Benton Harbor Ross Ann Clg 1% Condns DB=>MWB, ! Name
  30,                                     ! Maximum Dry-Bulb Temperature {C}
  10.7,                                   ! Daily Dry-Bulb Temperature Range {deltaC}
  23,                                     ! Humidity Indicating Conditions at Maximum Dry-Bulb {BasedOnField A3}
  98992,                                  ! Barometric Pressure {Pa}
  4.9,                                    ! Wind Speed {m/s}
  240,                                    ! Wind Direction {deg}
  0,                                      ! Sky Clearness
  0,                                      ! Rain Indicator
  0,                                      ! Snow Indicator
  21,                                     ! Day of Month
  7,                                      ! Month
  SummerDesignDay,                        ! Day Type
  0,                                      ! Daylight Saving Time Indicator
  Wetbulb,                                ! Humidity Indicating Type
  ,                                       ! Humidity Indicating Day Schedule Name
  DefaultMultipliers,                     ! Dry-Bulb Temperature Range Modifier Type
  ,                                       ! Dry-Bulb Temperature Range Modifier Schedule Name
  ASHRAETau,                              ! Solar Model Indicator
  ,                                       ! Beam Solar Day Schedule Name
  ,                                       ! Diffuse Solar Day Schedule Name
  0.442,                                  ! ASHRAE Taub {dimensionless}
  2.111;                                  ! ASHRAE Taud {dimensionless}

OS:ComponentData,
  {7cb5d1ff-c22f-42f8-bb9c-87eb4e5d7f7b}, ! Handle
  Component Data 1,                       ! Name
  {d7b5aa74-dd3a-4b76-8c70-6db00be0e1fd}, ! UUID
  {3a0ca699-b46f-4c9d-a054-6dafa188e3b7}, ! Version UUID
  1366307956,                             ! Creation Timestamp
  1366307956,                             ! Version Timestamp
  {b7add7e5-09e1-4d1b-8f5d-010357d4d702}; ! Name of Object 1

