
OS:Version,
  {cf760125-28d6-4ffa-b27f-a97c1196ab7c}, ! Handle
  0.9.3;                                  ! Version Identifier

OS:SizingPeriod:DesignDay,
  {995363e4-6612-4676-a458-6f520711e81e}, ! Handle
  Long Beach Ann Htg Wind 99.6% Condns WS=>MCDB, ! Name
  14,                                     ! Maximum Dry-Bulb Temperature {C}
  0,                                      ! Daily Dry-Bulb Temperature Range {deltaC}
  14,                                     ! Humidity Indicating Conditions at Maximum Dry-Bulb {BasedOnField A3}
  101181,                                 ! Barometric Pressure {Pa}
  9.4,                                    ! Wind Speed {m/s}
  300,                                    ! Wind Direction {deg}
  0,                                      ! Sky Clearness
  0,                                      ! Rain Indicator
  0,                                      ! Snow Indicator
  21,                                     ! Day of Month
  12,                                     ! Month
  WinterDesignDay,                        ! Day Type
  0,                                      ! Daylight Saving Time Indicator
  Wetbulb,                                ! Humidity Indicating Type
  ,                                       ! Humidity Indicating Day Schedule Name
  DefaultMultipliers,                     ! Dry-Bulb Temperature Range Modifier Type
  ,                                       ! Dry-Bulb Temperature Range Modifier Schedule Name
  ASHRAEClearSky;                         ! Solar Model Indicator

OS:ComponentData,
  {d455b7d1-cfe7-4180-b72e-5b4826c55728}, ! Handle
  Component Data 1,                       ! Name
  {f732a267-f822-4150-8435-ff4a94785ae5}, ! UUID
  {8d4c4c65-48dc-4958-ae2e-1574ed9d6121}, ! Version UUID
  1366306469,                             ! Creation Timestamp
  1366306469,                             ! Version Timestamp
  {995363e4-6612-4676-a458-6f520711e81e}; ! Name of Object 1

