
OS:Version,
  {c1ccc66e-6ef7-42d3-8833-f57359c06d96}, ! Handle
  0.9.3;                                  ! Version Identifier

OS:SizingPeriod:DesignDay,
  {a6a7fd03-be14-4208-9aea-714835b1c1db}, ! Handle
  Lake Charles Regional Arpt Ann Clg 2% Condns WB=>MDB, ! Name
  30.6,                                   ! Maximum Dry-Bulb Temperature {C}
  8.6,                                    ! Daily Dry-Bulb Temperature Range {deltaC}
  26.6,                                   ! Humidity Indicating Conditions at Maximum Dry-Bulb {BasedOnField A3}
  101265,                                 ! Barometric Pressure {Pa}
  3.3,                                    ! Wind Speed {m/s}
  230,                                    ! Wind Direction {deg}
  0,                                      ! Sky Clearness
  0,                                      ! Rain Indicator
  0,                                      ! Snow Indicator
  21,                                     ! Day of Month
  7,                                      ! Month
  SummerDesignDay,                        ! Day Type
  0,                                      ! Daylight Saving Time Indicator
  Wetbulb,                                ! Humidity Indicating Type
  ,                                       ! Humidity Indicating Day Schedule Name
  DefaultMultipliers,                     ! Dry-Bulb Temperature Range Modifier Type
  ,                                       ! Dry-Bulb Temperature Range Modifier Schedule Name
  ASHRAETau,                              ! Solar Model Indicator
  ,                                       ! Beam Solar Day Schedule Name
  ,                                       ! Diffuse Solar Day Schedule Name
  0.528,                                  ! ASHRAE Taub {dimensionless}
  1.904;                                  ! ASHRAE Taud {dimensionless}

OS:ComponentData,
  {555d30cb-ebe3-486f-aa6e-35325adebf90}, ! Handle
  Component Data 1,                       ! Name
  {01b4f7c6-bdc5-4cdf-850a-be87e833dbac}, ! UUID
  {a39b1fd8-e50b-4a24-ae52-5ca612b9230f}, ! Version UUID
  1366307732,                             ! Creation Timestamp
  1366307732,                             ! Version Timestamp
  {a6a7fd03-be14-4208-9aea-714835b1c1db}; ! Name of Object 1

