
OS:Version,
  {31cf95b2-2837-431c-9068-233bd640e5e7}, ! Handle
  0.9.3;                                  ! Version Identifier

OS:SizingPeriod:DesignDay,
  {3952fd53-9e25-4df5-be93-7464b7961bd6}, ! Handle
  Great Falls/Malmstrom Ann Clg .4% Condns Enth=>MDB, ! Name
  29.4,                                   ! Maximum Dry-Bulb Temperature {C}
  16,                                     ! Daily Dry-Bulb Temperature Range {deltaC}
  54700,                                  ! Humidity Indicating Conditions at Maximum Dry-Bulb {BasedOnField A3}
  89060,                                  ! Barometric Pressure {Pa}
  4.9,                                    ! Wind Speed {m/s}
  240,                                    ! Wind Direction {deg}
  0,                                      ! Sky Clearness
  0,                                      ! Rain Indicator
  0,                                      ! Snow Indicator
  21,                                     ! Day of Month
  7,                                      ! Month
  SummerDesignDay,                        ! Day Type
  0,                                      ! Daylight Saving Time Indicator
  Enthalpy,                               ! Humidity Indicating Type
  ,                                       ! Humidity Indicating Day Schedule Name
  DefaultMultipliers,                     ! Dry-Bulb Temperature Range Modifier Type
  ,                                       ! Dry-Bulb Temperature Range Modifier Schedule Name
  ASHRAETau,                              ! Solar Model Indicator
  ,                                       ! Beam Solar Day Schedule Name
  ,                                       ! Diffuse Solar Day Schedule Name
  0.383,                                  ! ASHRAE Taub {dimensionless}
  2.176;                                  ! ASHRAE Taud {dimensionless}

