
OS:Version,
  {5c226783-6754-41dd-acd7-d319706f3112}, ! Handle
  0.9.3;                                  ! Version Identifier

OS:SizingPeriod:DesignDay,
  {02e69ce0-209e-4a61-ba61-7b237ae8ae8c}, ! Handle
  Grand Island Ann Hum_n 99.6% Condns DP=>MCDB, ! Name
  -20,                                    ! Maximum Dry-Bulb Temperature {C}
  0,                                      ! Daily Dry-Bulb Temperature Range {deltaC}
  -25.9,                                  ! Humidity Indicating Conditions at Maximum Dry-Bulb {BasedOnField A3}
  94708,                                  ! Barometric Pressure {Pa}
  4.7,                                    ! Wind Speed {m/s}
  0,                                      ! Wind Direction {deg}
  0,                                      ! Sky Clearness
  0,                                      ! Rain Indicator
  0,                                      ! Snow Indicator
  21,                                     ! Day of Month
  1,                                      ! Month
  WinterDesignDay,                        ! Day Type
  0,                                      ! Daylight Saving Time Indicator
  Dewpoint,                               ! Humidity Indicating Type
  ,                                       ! Humidity Indicating Day Schedule Name
  DefaultMultipliers,                     ! Dry-Bulb Temperature Range Modifier Type
  ,                                       ! Dry-Bulb Temperature Range Modifier Schedule Name
  ASHRAEClearSky;                         ! Solar Model Indicator

OS:ComponentData,
  {1ccb4876-e179-4602-8dc8-c297a0de885e}, ! Handle
  Component Data 1,                       ! Name
  {a1955b90-5fd2-42f9-9cc7-8a7bae1c8c50}, ! UUID
  {f42232ab-74ff-43a5-b8b6-c2911334b71e}, ! Version UUID
  1366309107,                             ! Creation Timestamp
  1366309107,                             ! Version Timestamp
  {02e69ce0-209e-4a61-ba61-7b237ae8ae8c}; ! Name of Object 1

