
OS:Version,
  {78015237-4f9c-44c3-b2e2-835a008823bb}, ! Handle
  0.9.3;                                  ! Version Identifier

OS:SizingPeriod:DesignDay,
  {5920cc73-41fe-42b1-958c-77f6a4f05b1e}, ! Handle
  Fort Campbell Aaf Ann Clg .4% Condns Enth=>MDB, ! Name
  31.9,                                   ! Maximum Dry-Bulb Temperature {C}
  10.5,                                   ! Daily Dry-Bulb Temperature Range {deltaC}
  83500,                                  ! Humidity Indicating Conditions at Maximum Dry-Bulb {BasedOnField A3}
  99264,                                  ! Barometric Pressure {Pa}
  3,                                      ! Wind Speed {m/s}
  210,                                    ! Wind Direction {deg}
  0,                                      ! Sky Clearness
  0,                                      ! Rain Indicator
  0,                                      ! Snow Indicator
  21,                                     ! Day of Month
  7,                                      ! Month
  SummerDesignDay,                        ! Day Type
  0,                                      ! Daylight Saving Time Indicator
  Enthalpy,                               ! Humidity Indicating Type
  ,                                       ! Humidity Indicating Day Schedule Name
  DefaultMultipliers,                     ! Dry-Bulb Temperature Range Modifier Type
  ,                                       ! Dry-Bulb Temperature Range Modifier Schedule Name
  ASHRAETau,                              ! Solar Model Indicator
  ,                                       ! Beam Solar Day Schedule Name
  ,                                       ! Diffuse Solar Day Schedule Name
  0.511,                                  ! ASHRAE Taub {dimensionless}
  1.883;                                  ! ASHRAE Taud {dimensionless}

OS:ComponentData,
  {ecaa856f-dad0-478d-8d89-351e106568af}, ! Handle
  Component Data 1,                       ! Name
  {243a8085-5bf9-4df0-9a60-c18d0941b058}, ! UUID
  {4ab509ea-baba-4eb4-85a3-714e7d660776}, ! Version UUID
  1366307630,                             ! Creation Timestamp
  1366307630,                             ! Version Timestamp
  {5920cc73-41fe-42b1-958c-77f6a4f05b1e}; ! Name of Object 1

