
OS:Version,
  {f88ea9fb-26ec-44c6-adb5-918ff0905f1b}, ! Handle
  0.9.3;                                  ! Version Identifier

OS:SizingPeriod:DesignDay,
  {eee7cd05-ed86-4fdb-b0db-c2b5246c21e5}, ! Handle
  Fayetteville Pope Afb Ann Clg .4% Condns Enth=>MDB, ! Name
  32.1,                                   ! Maximum Dry-Bulb Temperature {C}
  10.4,                                   ! Daily Dry-Bulb Temperature Range {deltaC}
  82200,                                  ! Humidity Indicating Conditions at Maximum Dry-Bulb {BasedOnField A3}
  100535,                                 ! Barometric Pressure {Pa}
  3.4,                                    ! Wind Speed {m/s}
  230,                                    ! Wind Direction {deg}
  0,                                      ! Sky Clearness
  0,                                      ! Rain Indicator
  0,                                      ! Snow Indicator
  21,                                     ! Day of Month
  7,                                      ! Month
  SummerDesignDay,                        ! Day Type
  0,                                      ! Daylight Saving Time Indicator
  Enthalpy,                               ! Humidity Indicating Type
  ,                                       ! Humidity Indicating Day Schedule Name
  DefaultMultipliers,                     ! Dry-Bulb Temperature Range Modifier Type
  ,                                       ! Dry-Bulb Temperature Range Modifier Schedule Name
  ASHRAETau,                              ! Solar Model Indicator
  ,                                       ! Beam Solar Day Schedule Name
  ,                                       ! Diffuse Solar Day Schedule Name
  0.584,                                  ! ASHRAE Taub {dimensionless}
  1.713;                                  ! ASHRAE Taud {dimensionless}

OS:ComponentData,
  {dc8f95db-f8e7-4511-873e-a1c242bc03ea}, ! Handle
  Component Data 1,                       ! Name
  {180e2011-2605-443a-8da4-ddb27a697c9e}, ! UUID
  {54ea2838-b52f-45c6-98b2-89045dd23dde}, ! Version UUID
  1366308912,                             ! Creation Timestamp
  1366308912,                             ! Version Timestamp
  {eee7cd05-ed86-4fdb-b0db-c2b5246c21e5}; ! Name of Object 1

