
OS:Version,
  {fb636c27-edb0-43ff-b892-2098673b0fa7}, ! Handle
  0.9.3;                                  ! Version Identifier

OS:SizingPeriod:DesignDay,
  {f475e392-910d-4a92-904f-c8bb923ad67c}, ! Handle
  Eugene Mahlon Sweet Arpt  Uo Ann Clg 2% Condns WB=>MDB, ! Name
  27.5,                                   ! Maximum Dry-Bulb Temperature {C}
  15.8,                                   ! Daily Dry-Bulb Temperature Range {deltaC}
  18.5,                                   ! Humidity Indicating Conditions at Maximum Dry-Bulb {BasedOnField A3}
  100022,                                 ! Barometric Pressure {Pa}
  5.1,                                    ! Wind Speed {m/s}
  0,                                      ! Wind Direction {deg}
  0,                                      ! Sky Clearness
  0,                                      ! Rain Indicator
  0,                                      ! Snow Indicator
  21,                                     ! Day of Month
  7,                                      ! Month
  SummerDesignDay,                        ! Day Type
  0,                                      ! Daylight Saving Time Indicator
  Wetbulb,                                ! Humidity Indicating Type
  ,                                       ! Humidity Indicating Day Schedule Name
  DefaultMultipliers,                     ! Dry-Bulb Temperature Range Modifier Type
  ,                                       ! Dry-Bulb Temperature Range Modifier Schedule Name
  ASHRAETau,                              ! Solar Model Indicator
  ,                                       ! Beam Solar Day Schedule Name
  ,                                       ! Diffuse Solar Day Schedule Name
  0.357,                                  ! ASHRAE Taub {dimensionless}
  2.559;                                  ! ASHRAE Taud {dimensionless}

OS:ComponentData,
  {16112af8-ec94-43a0-8e06-2c5a19e0eeac}, ! Handle
  Component Data 1,                       ! Name
  {7940d609-7f26-49ff-a7a2-76a119c62c35}, ! UUID
  {8a7c25ea-eef2-42ec-bead-ac8c268f1c90}, ! Version UUID
  1366310008,                             ! Creation Timestamp
  1366310008,                             ! Version Timestamp
  {f475e392-910d-4a92-904f-c8bb923ad67c}; ! Name of Object 1

