
OS:Version,
  {22d315c4-aa54-41bb-bbab-7a6dc5fa9495}, ! Handle
  0.9.3;                                  ! Version Identifier

OS:SizingPeriod:DesignDay,
  {9e05c6a4-674b-4fce-9e7f-ce609fd43584}, ! Handle
  Daytona Beach Intl Ap Ann Htg Wind 99% Condns WS=>MCDB, ! Name
  15.3,                                   ! Maximum Dry-Bulb Temperature {C}
  0,                                      ! Daily Dry-Bulb Temperature Range {deltaC}
  15.3,                                   ! Humidity Indicating Conditions at Maximum Dry-Bulb {BasedOnField A3}
  101217,                                 ! Barometric Pressure {Pa}
  9.3,                                    ! Wind Speed {m/s}
  310,                                    ! Wind Direction {deg}
  0,                                      ! Sky Clearness
  0,                                      ! Rain Indicator
  0,                                      ! Snow Indicator
  21,                                     ! Day of Month
  1,                                      ! Month
  WinterDesignDay,                        ! Day Type
  0,                                      ! Daylight Saving Time Indicator
  Wetbulb,                                ! Humidity Indicating Type
  ,                                       ! Humidity Indicating Day Schedule Name
  DefaultMultipliers,                     ! Dry-Bulb Temperature Range Modifier Type
  ,                                       ! Dry-Bulb Temperature Range Modifier Schedule Name
  ASHRAEClearSky;                         ! Solar Model Indicator

OS:ComponentData,
  {b1078b06-a890-4f49-b988-f947a0321348}, ! Handle
  Component Data 1,                       ! Name
  {8ad2cf84-f995-4029-8004-7e9553d46712}, ! UUID
  {0d3175d9-97b7-467b-ac8d-dfe391997a31}, ! Version UUID
  1366306792,                             ! Creation Timestamp
  1366306792,                             ! Version Timestamp
  {9e05c6a4-674b-4fce-9e7f-ce609fd43584}; ! Name of Object 1

