
OS:Version,
  {c6364730-b2e4-4ba2-9e79-eb525e311433}, ! Handle
  0.9.3;                                  ! Version Identifier

OS:SizingPeriod:DesignDay,
  {91ff1f71-e585-4323-858a-545edd60a625}, ! Handle
  Little Rock Adams Field Ann Clg 1% Condns DP=>MDB, ! Name
  29.1,                                   ! Maximum Dry-Bulb Temperature {C}
  10.6,                                   ! Daily Dry-Bulb Temperature Range {deltaC}
  24.6,                                   ! Humidity Indicating Conditions at Maximum Dry-Bulb {BasedOnField A3}
  100391,                                 ! Barometric Pressure {Pa}
  3.9,                                    ! Wind Speed {m/s}
  200,                                    ! Wind Direction {deg}
  0,                                      ! Sky Clearness
  0,                                      ! Rain Indicator
  0,                                      ! Snow Indicator
  21,                                     ! Day of Month
  7,                                      ! Month
  SummerDesignDay,                        ! Day Type
  0,                                      ! Daylight Saving Time Indicator
  Dewpoint,                               ! Humidity Indicating Type
  ,                                       ! Humidity Indicating Day Schedule Name
  DefaultMultipliers,                     ! Dry-Bulb Temperature Range Modifier Type
  ,                                       ! Dry-Bulb Temperature Range Modifier Schedule Name
  ASHRAETau,                              ! Solar Model Indicator
  ,                                       ! Beam Solar Day Schedule Name
  ,                                       ! Diffuse Solar Day Schedule Name
  0.517,                                  ! ASHRAE Taub {dimensionless}
  1.901;                                  ! ASHRAE Taud {dimensionless}

OS:ComponentData,
  {79cecc89-2abb-4192-aeec-3a42687513f1}, ! Handle
  Component Data 1,                       ! Name
  {8ded4546-84ae-4662-9577-7f8e851dba9a}, ! UUID
  {2a8aba28-fba2-4060-8d17-eaa93d1f9a32}, ! Version UUID
  1366306229,                             ! Creation Timestamp
  1366306229,                             ! Version Timestamp
  {91ff1f71-e585-4323-858a-545edd60a625}; ! Name of Object 1

