
OS:Version,
  {4fa29fbf-de2e-45cf-b119-2782ce8b535b}, ! Handle
  0.9.3;                                  ! Version Identifier

OS:SizingPeriod:DesignDay,
  {7beb1da2-a126-4e46-9d06-0d710b7e7707}, ! Handle
  Hattiesburg Laurel Ann Clg 2% Condns WB=>MDB, ! Name
  31,                                     ! Maximum Dry-Bulb Temperature {C}
  10.9,                                   ! Daily Dry-Bulb Temperature Range {deltaC}
  24.9,                                   ! Humidity Indicating Conditions at Maximum Dry-Bulb {BasedOnField A3}
  100213,                                 ! Barometric Pressure {Pa}
  2.1,                                    ! Wind Speed {m/s}
  330,                                    ! Wind Direction {deg}
  0,                                      ! Sky Clearness
  0,                                      ! Rain Indicator
  0,                                      ! Snow Indicator
  21,                                     ! Day of Month
  7,                                      ! Month
  SummerDesignDay,                        ! Day Type
  0,                                      ! Daylight Saving Time Indicator
  Wetbulb,                                ! Humidity Indicating Type
  ,                                       ! Humidity Indicating Day Schedule Name
  DefaultMultipliers,                     ! Dry-Bulb Temperature Range Modifier Type
  ,                                       ! Dry-Bulb Temperature Range Modifier Schedule Name
  ASHRAETau,                              ! Solar Model Indicator
  ,                                       ! Beam Solar Day Schedule Name
  ,                                       ! Diffuse Solar Day Schedule Name
  0.55,                                   ! ASHRAE Taub {dimensionless}
  1.826;                                  ! ASHRAE Taud {dimensionless}

OS:ComponentData,
  {54c393aa-fc2c-4dc8-8262-52c0877c33d0}, ! Handle
  Component Data 1,                       ! Name
  {b9485e85-def4-495c-8a30-472865c57cf7}, ! UUID
  {c9eb4bfe-2f14-43fd-8a23-6884f27a84a4}, ! Version UUID
  1366308634,                             ! Creation Timestamp
  1366308634,                             ! Version Timestamp
  {7beb1da2-a126-4e46-9d06-0d710b7e7707}; ! Name of Object 1

