
OS:Version,
  {b0164b1b-8200-4353-a24d-892685aa2404}, ! Handle
  0.9.3;                                  ! Version Identifier

OS:SizingPeriod:DesignDay,
  {a9a4a7a5-5e99-4675-95f8-26fea040a890}, ! Handle
  Jackson Mckellar Sipes Regl A Ann Clg .4% Condns DP=>MDB, ! Name
  29.6,                                   ! Maximum Dry-Bulb Temperature {C}
  10.8,                                   ! Daily Dry-Bulb Temperature Range {deltaC}
  24.8,                                   ! Humidity Indicating Conditions at Maximum Dry-Bulb {BasedOnField A3}
  99749,                                  ! Barometric Pressure {Pa}
  3.2,                                    ! Wind Speed {m/s}
  240,                                    ! Wind Direction {deg}
  0,                                      ! Sky Clearness
  0,                                      ! Rain Indicator
  0,                                      ! Snow Indicator
  21,                                     ! Day of Month
  7,                                      ! Month
  SummerDesignDay,                        ! Day Type
  0,                                      ! Daylight Saving Time Indicator
  Dewpoint,                               ! Humidity Indicating Type
  ,                                       ! Humidity Indicating Day Schedule Name
  DefaultMultipliers,                     ! Dry-Bulb Temperature Range Modifier Type
  ,                                       ! Dry-Bulb Temperature Range Modifier Schedule Name
  ASHRAETau,                              ! Solar Model Indicator
  ,                                       ! Beam Solar Day Schedule Name
  ,                                       ! Diffuse Solar Day Schedule Name
  0.501,                                  ! ASHRAE Taub {dimensionless}
  1.926;                                  ! ASHRAE Taud {dimensionless}

OS:ComponentData,
  {dc71df7f-4cda-4168-8a3f-e80ea4be2246}, ! Handle
  Component Data 1,                       ! Name
  {67107e61-a1f9-469e-9613-ec675cd7fc56}, ! UUID
  {a72bdd21-4500-4a0f-b90c-ec1c25b01040}, ! Version UUID
  1366310505,                             ! Creation Timestamp
  1366310505,                             ! Version Timestamp
  {a9a4a7a5-5e99-4675-95f8-26fea040a890}; ! Name of Object 1

