
OS:Version,
  {f6cafee2-89a1-4674-a8ff-7be16e3c16a4}, ! Handle
  0.9.3;                                  ! Version Identifier

OS:SizingPeriod:DesignDay,
  {58d1e655-3fee-457f-a2f9-5269e1bafe8b}, ! Handle
  Kirksville Regional Ap Ann Clg 2% Condns WB=>MDB, ! Name
  29.7,                                   ! Maximum Dry-Bulb Temperature {C}
  10.6,                                   ! Daily Dry-Bulb Temperature Range {deltaC}
  24.1,                                   ! Humidity Indicating Conditions at Maximum Dry-Bulb {BasedOnField A3}
  97843,                                  ! Barometric Pressure {Pa}
  4.9,                                    ! Wind Speed {m/s}
  210,                                    ! Wind Direction {deg}
  0,                                      ! Sky Clearness
  0,                                      ! Rain Indicator
  0,                                      ! Snow Indicator
  21,                                     ! Day of Month
  7,                                      ! Month
  SummerDesignDay,                        ! Day Type
  0,                                      ! Daylight Saving Time Indicator
  Wetbulb,                                ! Humidity Indicating Type
  ,                                       ! Humidity Indicating Day Schedule Name
  DefaultMultipliers,                     ! Dry-Bulb Temperature Range Modifier Type
  ,                                       ! Dry-Bulb Temperature Range Modifier Schedule Name
  ASHRAETau,                              ! Solar Model Indicator
  ,                                       ! Beam Solar Day Schedule Name
  ,                                       ! Diffuse Solar Day Schedule Name
  0.44,                                   ! ASHRAE Taub {dimensionless}
  2.113;                                  ! ASHRAE Taud {dimensionless}

OS:ComponentData,
  {febff849-d588-4e61-bb38-9dfd16aeec3a}, ! Handle
  Component Data 1,                       ! Name
  {d791bbb0-570b-44d7-a9fe-a7a29e353f70}, ! UUID
  {f7f0d186-2978-465e-8c46-9d6a757b06a5}, ! Version UUID
  1366308539,                             ! Creation Timestamp
  1366308539,                             ! Version Timestamp
  {58d1e655-3fee-457f-a2f9-5269e1bafe8b}; ! Name of Object 1

