
OS:Version,
  {e51ab5b7-7eb3-49ea-a545-10487833cd1f}, ! Handle
  0.9.3;                                  ! Version Identifier

OS:SizingPeriod:DesignDay,
  {571fb91f-87ed-47ed-8fe3-f1147e76e8d3}, ! Handle
  KING_SALMON Ann Clg .4% Condns DB=>MWB, ! Name
  22.3,                                   ! Maximum Dry-Bulb Temperature {C}
  8.6,                                    ! Daily Dry-Bulb Temperature Range {deltaC}
  14.8,                                   ! Humidity Indicating Conditions at Maximum Dry-Bulb {BasedOnField A3}
  101145,                                 ! Barometric Pressure {Pa}
  4.8,                                    ! Wind Speed {m/s}
  270,                                    ! Wind Direction {deg}
  0,                                      ! Sky Clearness
  0,                                      ! Rain Indicator
  0,                                      ! Snow Indicator
  21,                                     ! Day of Month
  7,                                      ! Month
  SummerDesignDay,                        ! Day Type
  0,                                      ! Daylight Saving Time Indicator
  Wetbulb,                                ! Humidity Indicating Type
  ,                                       ! Humidity Indicating Day Schedule Name
  DefaultMultipliers,                     ! Dry-Bulb Temperature Range Modifier Type
  ,                                       ! Dry-Bulb Temperature Range Modifier Schedule Name
  ASHRAETau,                              ! Solar Model Indicator
  ,                                       ! Beam Solar Day Schedule Name
  ,                                       ! Diffuse Solar Day Schedule Name
  0.384,                                  ! ASHRAE Taub {dimensionless}
  2.227;                                  ! ASHRAE Taud {dimensionless}

OS:ComponentData,
  {807772d6-9ce5-4e3f-90ad-335097106326}, ! Handle
  Component Data 1,                       ! Name
  {af0e98a8-9ed2-4d7a-9e90-7fc89a09462a}, ! UUID
  {e5d1a671-310f-428c-9b5b-34317d54338b}, ! Version UUID
  1366305358,                             ! Creation Timestamp
  1366305358,                             ! Version Timestamp
  {571fb91f-87ed-47ed-8fe3-f1147e76e8d3}; ! Name of Object 1

