
OS:Version,
  {b1f48645-5ba8-495c-bd08-6ba70fc75d21}, ! Handle
  0.9.3;                                  ! Version Identifier

OS:SizingPeriod:DesignDay,
  {369a0828-f92b-45c0-8314-d974641938e2}, ! Handle
  Islip Long Isl Macarthur Ap Ann Clg 1% Condns DP=>MDB, ! Name
  25.7,                                   ! Maximum Dry-Bulb Temperature {C}
  8.4,                                    ! Daily Dry-Bulb Temperature Range {deltaC}
  23,                                     ! Humidity Indicating Conditions at Maximum Dry-Bulb {BasedOnField A3}
  101013,                                 ! Barometric Pressure {Pa}
  4.9,                                    ! Wind Speed {m/s}
  220,                                    ! Wind Direction {deg}
  0,                                      ! Sky Clearness
  0,                                      ! Rain Indicator
  0,                                      ! Snow Indicator
  21,                                     ! Day of Month
  7,                                      ! Month
  SummerDesignDay,                        ! Day Type
  0,                                      ! Daylight Saving Time Indicator
  Dewpoint,                               ! Humidity Indicating Type
  ,                                       ! Humidity Indicating Day Schedule Name
  DefaultMultipliers,                     ! Dry-Bulb Temperature Range Modifier Type
  ,                                       ! Dry-Bulb Temperature Range Modifier Schedule Name
  ASHRAETau,                              ! Solar Model Indicator
  ,                                       ! Beam Solar Day Schedule Name
  ,                                       ! Diffuse Solar Day Schedule Name
  0.533,                                  ! ASHRAE Taub {dimensionless}
  1.82;                                   ! ASHRAE Taud {dimensionless}

OS:ComponentData,
  {9f500304-5ffc-4b5a-9aca-b7daec628bd0}, ! Handle
  Component Data 1,                       ! Name
  {06f34b90-e62d-497e-958e-1b9369d47bcb}, ! UUID
  {c0c79902-7ae9-43d4-9bbf-0c050868b176}, ! Version UUID
  1366309632,                             ! Creation Timestamp
  1366309632,                             ! Version Timestamp
  {369a0828-f92b-45c0-8314-d974641938e2}; ! Name of Object 1

