
OS:Version,
  {2d67190e-bba2-4268-8462-024a1ce7a9fa}, ! Handle
  0.9.3;                                  ! Version Identifier

OS:SizingPeriod:DesignDay,
  {e1829945-8175-4ea8-abac-dc4280d3389d}, ! Handle
  Charleston Ann Clg 1% Condns Enth=>MDB, ! Name
  30.9,                                   ! Maximum Dry-Bulb Temperature {C}
  9,                                      ! Daily Dry-Bulb Temperature Range {deltaC}
  82200,                                  ! Humidity Indicating Conditions at Maximum Dry-Bulb {BasedOnField A3}
  101145,                                 ! Barometric Pressure {Pa}
  4.4,                                    ! Wind Speed {m/s}
  230,                                    ! Wind Direction {deg}
  0,                                      ! Sky Clearness
  0,                                      ! Rain Indicator
  0,                                      ! Snow Indicator
  21,                                     ! Day of Month
  7,                                      ! Month
  SummerDesignDay,                        ! Day Type
  0,                                      ! Daylight Saving Time Indicator
  Enthalpy,                               ! Humidity Indicating Type
  ,                                       ! Humidity Indicating Day Schedule Name
  DefaultMultipliers,                     ! Dry-Bulb Temperature Range Modifier Type
  ,                                       ! Dry-Bulb Temperature Range Modifier Schedule Name
  ASHRAETau,                              ! Solar Model Indicator
  ,                                       ! Beam Solar Day Schedule Name
  ,                                       ! Diffuse Solar Day Schedule Name
  0.559,                                  ! ASHRAE Taub {dimensionless}
  1.811;                                  ! ASHRAE Taud {dimensionless}

OS:ComponentData,
  {fb2a9705-d60a-46e5-9f95-0ba70c5510f6}, ! Handle
  Component Data 1,                       ! Name
  {e77fa194-c06e-40af-a4c9-6eb9c46de42d}, ! UUID
  {4513a815-c226-4c9e-b72f-914349cca9ef}, ! Version UUID
  1366310328,                             ! Creation Timestamp
  1366310328,                             ! Version Timestamp
  {e1829945-8175-4ea8-abac-dc4280d3389d}; ! Name of Object 1

