
OS:Version,
  {13900e9e-5e7b-48a7-9e41-220c2c8627fc}, ! Handle
  0.9.3;                                  ! Version Identifier

OS:SizingPeriod:DesignDay,
  {fa87a0cb-ef89-4b53-a569-62bc6a395d84}, ! Handle
  Cape Girardeau Municipal Ap Ann Hum_n 99.6% Condns DP=>MCDB, ! Name
  -12.8,                                  ! Maximum Dry-Bulb Temperature {C}
  0,                                      ! Daily Dry-Bulb Temperature Range {deltaC}
  -18.6,                                  ! Humidity Indicating Conditions at Maximum Dry-Bulb {BasedOnField A3}
  100094,                                 ! Barometric Pressure {Pa}
  3.7,                                    ! Wind Speed {m/s}
  340,                                    ! Wind Direction {deg}
  0,                                      ! Sky Clearness
  0,                                      ! Rain Indicator
  0,                                      ! Snow Indicator
  21,                                     ! Day of Month
  1,                                      ! Month
  WinterDesignDay,                        ! Day Type
  0,                                      ! Daylight Saving Time Indicator
  Dewpoint,                               ! Humidity Indicating Type
  ,                                       ! Humidity Indicating Day Schedule Name
  DefaultMultipliers,                     ! Dry-Bulb Temperature Range Modifier Type
  ,                                       ! Dry-Bulb Temperature Range Modifier Schedule Name
  ASHRAEClearSky;                         ! Solar Model Indicator

OS:ComponentData,
  {86cad66b-34fc-40a4-9e57-6cecc6410322}, ! Handle
  Component Data 1,                       ! Name
  {a4e7fe56-ad29-4c30-aa51-a5070e41d21d}, ! UUID
  {7b007dfc-b364-4a42-b3b7-67219edac503}, ! Version UUID
  1366308474,                             ! Creation Timestamp
  1366308474,                             ! Version Timestamp
  {fa87a0cb-ef89-4b53-a569-62bc6a395d84}; ! Name of Object 1

