
OS:Version,
  {662a2665-e453-4856-baec-1e2143bb3653}, ! Handle
  0.9.3;                                  ! Version Identifier

OS:SizingPeriod:DesignDay,
  {4e01f66e-41eb-4bd6-8f1d-2da032e28d4e}, ! Handle
  Benton Harbor Ross Ann Clg 1% Condns DP=>MDB, ! Name
  26.9,                                   ! Maximum Dry-Bulb Temperature {C}
  10.7,                                   ! Daily Dry-Bulb Temperature Range {deltaC}
  22.7,                                   ! Humidity Indicating Conditions at Maximum Dry-Bulb {BasedOnField A3}
  98992,                                  ! Barometric Pressure {Pa}
  4.9,                                    ! Wind Speed {m/s}
  240,                                    ! Wind Direction {deg}
  0,                                      ! Sky Clearness
  0,                                      ! Rain Indicator
  0,                                      ! Snow Indicator
  21,                                     ! Day of Month
  7,                                      ! Month
  SummerDesignDay,                        ! Day Type
  0,                                      ! Daylight Saving Time Indicator
  Dewpoint,                               ! Humidity Indicating Type
  ,                                       ! Humidity Indicating Day Schedule Name
  DefaultMultipliers,                     ! Dry-Bulb Temperature Range Modifier Type
  ,                                       ! Dry-Bulb Temperature Range Modifier Schedule Name
  ASHRAETau,                              ! Solar Model Indicator
  ,                                       ! Beam Solar Day Schedule Name
  ,                                       ! Diffuse Solar Day Schedule Name
  0.442,                                  ! ASHRAE Taub {dimensionless}
  2.111;                                  ! ASHRAE Taud {dimensionless}

OS:ComponentData,
  {73988c65-e66e-4785-b54f-22494a557a30}, ! Handle
  Component Data 1,                       ! Name
  {68b53ef5-ae2a-4616-bc00-a3e13acd7023}, ! UUID
  {a7fb99ee-fb12-4a72-9e6a-62d84f44ff2a}, ! Version UUID
  1366307958,                             ! Creation Timestamp
  1366307958,                             ! Version Timestamp
  {4e01f66e-41eb-4bd6-8f1d-2da032e28d4e}; ! Name of Object 1

