
OS:Version,
  {ec36b292-7ccc-4bb9-a17f-6969f1b6ccae}, ! Handle
  0.9.3;                                  ! Version Identifier

OS:SizingPeriod:DesignDay,
  {fe019412-b44d-4c22-bc7c-50c76eaa6f73}, ! Handle
  Del Rio  Ut Ann Clg 2% Condns Enth=>MDB, ! Name
  31.2,                                   ! Maximum Dry-Bulb Temperature {C}
  11.4,                                   ! Daily Dry-Bulb Temperature Range {deltaC}
  74900,                                  ! Humidity Indicating Conditions at Maximum Dry-Bulb {BasedOnField A3}
  97679,                                  ! Barometric Pressure {Pa}
  4.8,                                    ! Wind Speed {m/s}
  140,                                    ! Wind Direction {deg}
  0,                                      ! Sky Clearness
  0,                                      ! Rain Indicator
  0,                                      ! Snow Indicator
  21,                                     ! Day of Month
  7,                                      ! Month
  SummerDesignDay,                        ! Day Type
  0,                                      ! Daylight Saving Time Indicator
  Enthalpy,                               ! Humidity Indicating Type
  ,                                       ! Humidity Indicating Day Schedule Name
  DefaultMultipliers,                     ! Dry-Bulb Temperature Range Modifier Type
  ,                                       ! Dry-Bulb Temperature Range Modifier Schedule Name
  ASHRAETau,                              ! Solar Model Indicator
  ,                                       ! Beam Solar Day Schedule Name
  ,                                       ! Diffuse Solar Day Schedule Name
  0.48,                                   ! ASHRAE Taub {dimensionless}
  1.993;                                  ! ASHRAE Taud {dimensionless}

OS:ComponentData,
  {699d99fd-2abd-43c9-aaa4-15571a8c7e7f}, ! Handle
  Component Data 1,                       ! Name
  {193445b3-05a6-4779-ac6b-adaa8610c8b0}, ! UUID
  {d49265ee-7ac8-450f-bf77-830535995554}, ! Version UUID
  1366310677,                             ! Creation Timestamp
  1366310677,                             ! Version Timestamp
  {fe019412-b44d-4c22-bc7c-50c76eaa6f73}; ! Name of Object 1

