
OS:Version,
  {41276b5f-e8f6-41af-ab12-979ecd920386}, ! Handle
  0.9.3;                                  ! Version Identifier

OS:SizingPeriod:DesignDay,
  {526690cb-bce4-45e2-ad6b-837c4a2c2736}, ! Handle
  CHARLESTON Ann Hum_n 99% Condns DP=>MCDB, ! Name
  3.6,                                    ! Maximum Dry-Bulb Temperature {C}
  0,                                      ! Daily Dry-Bulb Temperature Range {deltaC}
  -10.2,                                  ! Humidity Indicating Conditions at Maximum Dry-Bulb {BasedOnField A3}
  101181,                                 ! Barometric Pressure {Pa}
  2.7,                                    ! Wind Speed {m/s}
  20,                                     ! Wind Direction {deg}
  0,                                      ! Sky Clearness
  0,                                      ! Rain Indicator
  0,                                      ! Snow Indicator
  21,                                     ! Day of Month
  1,                                      ! Month
  WinterDesignDay,                        ! Day Type
  0,                                      ! Daylight Saving Time Indicator
  Dewpoint,                               ! Humidity Indicating Type
  ,                                       ! Humidity Indicating Day Schedule Name
  DefaultMultipliers,                     ! Dry-Bulb Temperature Range Modifier Type
  ,                                       ! Dry-Bulb Temperature Range Modifier Schedule Name
  ASHRAEClearSky;                         ! Solar Model Indicator

OS:ComponentData,
  {fc81eab5-c0a8-4a09-bc4a-6d3381aad568}, ! Handle
  Component Data 1,                       ! Name
  {1eaf571f-7f35-45b4-99ef-82ed51df81f7}, ! UUID
  {d17c23aa-16d1-4878-96e0-e5aadccfe0a7}, ! Version UUID
  1366310322,                             ! Creation Timestamp
  1366310322,                             ! Version Timestamp
  {526690cb-bce4-45e2-ad6b-837c4a2c2736}; ! Name of Object 1

