
OS:Version,
  {fcd39d61-b3cc-4de6-80b1-1286938250cf}, ! Handle
  0.9.3;                                  ! Version Identifier

OS:SizingPeriod:DesignDay,
  {4291dc2e-9138-4175-8f29-5d3cb7946331}, ! Handle
  COLORADO_SPRINGS Ann Htg Wind 99.6% Condns WS=>MCDB, ! Name
  0.3,                                    ! Maximum Dry-Bulb Temperature {C}
  0,                                      ! Daily Dry-Bulb Temperature Range {deltaC}
  0.3,                                    ! Humidity Indicating Conditions at Maximum Dry-Bulb {BasedOnField A3}
  80677,                                  ! Barometric Pressure {Pa}
  14.6,                                   ! Wind Speed {m/s}
  20,                                     ! Wind Direction {deg}
  0,                                      ! Sky Clearness
  0,                                      ! Rain Indicator
  0,                                      ! Snow Indicator
  21,                                     ! Day of Month
  12,                                     ! Month
  WinterDesignDay,                        ! Day Type
  0,                                      ! Daylight Saving Time Indicator
  Wetbulb,                                ! Humidity Indicating Type
  ,                                       ! Humidity Indicating Day Schedule Name
  DefaultMultipliers,                     ! Dry-Bulb Temperature Range Modifier Type
  ,                                       ! Dry-Bulb Temperature Range Modifier Schedule Name
  ASHRAEClearSky;                         ! Solar Model Indicator

OS:ComponentData,
  {9d554189-e052-4558-9fe7-d496d5f1741e}, ! Handle
  Component Data 1,                       ! Name
  {0c05f0cb-2a3e-4bfa-a918-702de53594b7}, ! UUID
  {e1584e71-947f-4fe8-a1de-fa134dcc27e5}, ! Version UUID
  1366306665,                             ! Creation Timestamp
  1366306665,                             ! Version Timestamp
  {4291dc2e-9138-4175-8f29-5d3cb7946331}; ! Name of Object 1

