
OS:Version,
  {08adf52a-3c82-4d29-bd26-a0bacd205007}, ! Handle
  0.9.3;                                  ! Version Identifier

OS:SizingPeriod:DesignDay,
  {81af1ff1-61a0-4b49-b781-5ed4e3dc2499}, ! Handle
  CASPER Ann Clg 2% Condns DB=>MWB,       ! Name
  31.2,                                   ! Maximum Dry-Bulb Temperature {C}
  18.1,                                   ! Daily Dry-Bulb Temperature Range {deltaC}
  14.8,                                   ! Humidity Indicating Conditions at Maximum Dry-Bulb {BasedOnField A3}
  83400,                                  ! Barometric Pressure {Pa}
  5.5,                                    ! Wind Speed {m/s}
  230,                                    ! Wind Direction {deg}
  0,                                      ! Sky Clearness
  0,                                      ! Rain Indicator
  0,                                      ! Snow Indicator
  21,                                     ! Day of Month
  7,                                      ! Month
  SummerDesignDay,                        ! Day Type
  0,                                      ! Daylight Saving Time Indicator
  Wetbulb,                                ! Humidity Indicating Type
  ,                                       ! Humidity Indicating Day Schedule Name
  DefaultMultipliers,                     ! Dry-Bulb Temperature Range Modifier Type
  ,                                       ! Dry-Bulb Temperature Range Modifier Schedule Name
  ASHRAETau,                              ! Solar Model Indicator
  ,                                       ! Beam Solar Day Schedule Name
  ,                                       ! Diffuse Solar Day Schedule Name
  0.411,                                  ! ASHRAE Taub {dimensionless}
  2.017;                                  ! ASHRAE Taud {dimensionless}

OS:ComponentData,
  {5ed90e3a-f135-4916-a5a1-737a3d48fe54}, ! Handle
  Component Data 1,                       ! Name
  {c887d6dc-25c1-49c1-8d1b-c9346da337e2}, ! UUID
  {79f341af-7b5e-419e-b1a4-87f432f102db}, ! Version UUID
  1366311695,                             ! Creation Timestamp
  1366311695,                             ! Version Timestamp
  {81af1ff1-61a0-4b49-b781-5ed4e3dc2499}; ! Name of Object 1

