
OS:Version,
  {4695f3d4-3110-4812-9323-4beb3e763a74}, ! Handle
  0.9.3;                                  ! Version Identifier

OS:SizingPeriod:DesignDay,
  {41a4cd6c-eb87-4da9-9af1-1a64f0cf3ffe}, ! Handle
  LA_CROSSE Ann Clg .4% Condns Enth=>MDB, ! Name
  31.1,                                   ! Maximum Dry-Bulb Temperature {C}
  11.1,                                   ! Daily Dry-Bulb Temperature Range {deltaC}
  79400,                                  ! Humidity Indicating Conditions at Maximum Dry-Bulb {BasedOnField A3}
  98886,                                  ! Barometric Pressure {Pa}
  5.4,                                    ! Wind Speed {m/s}
  180,                                    ! Wind Direction {deg}
  0,                                      ! Sky Clearness
  0,                                      ! Rain Indicator
  0,                                      ! Snow Indicator
  21,                                     ! Day of Month
  7,                                      ! Month
  SummerDesignDay,                        ! Day Type
  0,                                      ! Daylight Saving Time Indicator
  Enthalpy,                               ! Humidity Indicating Type
  ,                                       ! Humidity Indicating Day Schedule Name
  DefaultMultipliers,                     ! Dry-Bulb Temperature Range Modifier Type
  ,                                       ! Dry-Bulb Temperature Range Modifier Schedule Name
  ASHRAETau,                              ! Solar Model Indicator
  ,                                       ! Beam Solar Day Schedule Name
  ,                                       ! Diffuse Solar Day Schedule Name
  0.431,                                  ! ASHRAE Taub {dimensionless}
  2.126;                                  ! ASHRAE Taud {dimensionless}

OS:ComponentData,
  {0e8c9fc0-1f95-4ee3-9003-4cfc7815b853}, ! Handle
  Component Data 1,                       ! Name
  {b87d0c6d-afd2-458d-b730-7180c67da019}, ! UUID
  {ac2a3803-2923-4e37-9923-f6493d7ade0d}, ! Version UUID
  1366311504,                             ! Creation Timestamp
  1366311504,                             ! Version Timestamp
  {41a4cd6c-eb87-4da9-9af1-1a64f0cf3ffe}; ! Name of Object 1

