
OS:Version,
  {e5cef620-4e47-4f12-9444-97e1066db642}, ! Handle
  0.9.3;                                  ! Version Identifier

OS:SizingPeriod:DesignDay,
  {123e58d5-62de-420a-8824-a2a12cf74767}, ! Handle
  Crescent City Faa Ai Ann Clg 2% Condns WB=>MDB, ! Name
  17.2,                                   ! Maximum Dry-Bulb Temperature {C}
  5.7,                                    ! Daily Dry-Bulb Temperature Range {deltaC}
  14.9,                                   ! Humidity Indicating Conditions at Maximum Dry-Bulb {BasedOnField A3}
  101121,                                 ! Barometric Pressure {Pa}
  3.9,                                    ! Wind Speed {m/s}
  310,                                    ! Wind Direction {deg}
  0,                                      ! Sky Clearness
  0,                                      ! Rain Indicator
  0,                                      ! Snow Indicator
  21,                                     ! Day of Month
  8,                                      ! Month
  SummerDesignDay,                        ! Day Type
  0,                                      ! Daylight Saving Time Indicator
  Wetbulb,                                ! Humidity Indicating Type
  ,                                       ! Humidity Indicating Day Schedule Name
  DefaultMultipliers,                     ! Dry-Bulb Temperature Range Modifier Type
  ,                                       ! Dry-Bulb Temperature Range Modifier Schedule Name
  ASHRAETau,                              ! Solar Model Indicator
  ,                                       ! Beam Solar Day Schedule Name
  ,                                       ! Diffuse Solar Day Schedule Name
  0.362,                                  ! ASHRAE Taub {dimensionless}
  2.529;                                  ! ASHRAE Taud {dimensionless}

OS:ComponentData,
  {aab35066-e4d9-4673-90ce-f40998c4544d}, ! Handle
  Component Data 1,                       ! Name
  {f9fc8365-67e0-45b6-be1d-1394f12a2837}, ! UUID
  {a5888dcf-2491-4d59-aa85-49d20a91dbef}, ! Version UUID
  1366306418,                             ! Creation Timestamp
  1366306418,                             ! Version Timestamp
  {123e58d5-62de-420a-8824-a2a12cf74767}; ! Name of Object 1

