
OS:Version,
  {2f4d1988-5b3e-42af-8cc9-2c77ff1d7b34}, ! Handle
  0.9.3;                                  ! Version Identifier

OS:SizingPeriod:DesignDay,
  {3e98e2f6-3770-4dce-886e-56c273d501b2}, ! Handle
  Anchorage Elmendorf Ann Hum_n 99% Condns DP=>MCDB, ! Name
  -21.6,                                  ! Maximum Dry-Bulb Temperature {C}
  0,                                      ! Daily Dry-Bulb Temperature Range {deltaC}
  -26.9,                                  ! Humidity Indicating Conditions at Maximum Dry-Bulb {BasedOnField A3}
  100618,                                 ! Barometric Pressure {Pa}
  2.2,                                    ! Wind Speed {m/s}
  50,                                     ! Wind Direction {deg}
  0,                                      ! Sky Clearness
  0,                                      ! Rain Indicator
  0,                                      ! Snow Indicator
  21,                                     ! Day of Month
  1,                                      ! Month
  WinterDesignDay,                        ! Day Type
  0,                                      ! Daylight Saving Time Indicator
  Dewpoint,                               ! Humidity Indicating Type
  ,                                       ! Humidity Indicating Day Schedule Name
  DefaultMultipliers,                     ! Dry-Bulb Temperature Range Modifier Type
  ,                                       ! Dry-Bulb Temperature Range Modifier Schedule Name
  ASHRAEClearSky;                         ! Solar Model Indicator

OS:ComponentData,
  {9c98aff2-c12c-44b0-ae16-1302ba4ad51f}, ! Handle
  Component Data 1,                       ! Name
  {8b2a810d-e206-4ddd-bc61-de94c9d911a1}, ! UUID
  {6a008c33-519f-483a-ac2b-6ec178dc0dec}, ! Version UUID
  1366304691,                             ! Creation Timestamp
  1366304691,                             ! Version Timestamp
  {3e98e2f6-3770-4dce-886e-56c273d501b2}; ! Name of Object 1

