
OS:Version,
  {c84cda0b-3999-4846-b319-c6aa94d21cf9}, ! Handle
  0.9.3;                                  ! Version Identifier

OS:SizingPeriod:DesignDay,
  {1cb3ef41-5f3e-40a8-a0b0-94ced71ebb3d}, ! Handle
  Fairbanks Intl Arpt Ann Clg 2% Condns DP=>MDB, ! Name
  17.3,                                   ! Maximum Dry-Bulb Temperature {C}
  10.2,                                   ! Daily Dry-Bulb Temperature Range {deltaC}
  12.8,                                   ! Humidity Indicating Conditions at Maximum Dry-Bulb {BasedOnField A3}
  99737,                                  ! Barometric Pressure {Pa}
  3.1,                                    ! Wind Speed {m/s}
  180,                                    ! Wind Direction {deg}
  0,                                      ! Sky Clearness
  0,                                      ! Rain Indicator
  0,                                      ! Snow Indicator
  21,                                     ! Day of Month
  7,                                      ! Month
  SummerDesignDay,                        ! Day Type
  0,                                      ! Daylight Saving Time Indicator
  Dewpoint,                               ! Humidity Indicating Type
  ,                                       ! Humidity Indicating Day Schedule Name
  DefaultMultipliers,                     ! Dry-Bulb Temperature Range Modifier Type
  ,                                       ! Dry-Bulb Temperature Range Modifier Schedule Name
  ASHRAETau,                              ! Solar Model Indicator
  ,                                       ! Beam Solar Day Schedule Name
  ,                                       ! Diffuse Solar Day Schedule Name
  0.387,                                  ! ASHRAE Taub {dimensionless}
  2.212;                                  ! ASHRAE Taud {dimensionless}

OS:ComponentData,
  {f6ddb913-7502-4a38-880e-8520a1fe5c09}, ! Handle
  Component Data 1,                       ! Name
  {d850f28c-a863-4dbb-939b-08cc1b18280d}, ! UUID
  {b74ed820-7e7f-4885-99ff-c6b0cfd7b853}, ! Version UUID
  1366305263,                             ! Creation Timestamp
  1366305263,                             ! Version Timestamp
  {1cb3ef41-5f3e-40a8-a0b0-94ced71ebb3d}; ! Name of Object 1

