
OS:Version,
  {4d22b7aa-5e60-428b-ae0d-e293991479b4}, ! Handle
  0.9.3;                                  ! Version Identifier

OS:SizingPeriod:DesignDay,
  {7de4cd21-98d5-4c99-a8a5-c03d3ce462bb}, ! Handle
  Columbus Metropolitan Arpt Ann Htg 99% Condns DB, ! Name
  -1.7,                                   ! Maximum Dry-Bulb Temperature {C}
  0,                                      ! Daily Dry-Bulb Temperature Range {deltaC}
  -1.7,                                   ! Humidity Indicating Conditions at Maximum Dry-Bulb {BasedOnField A3}
  99892,                                  ! Barometric Pressure {Pa}
  2.8,                                    ! Wind Speed {m/s}
  330,                                    ! Wind Direction {deg}
  0,                                      ! Sky Clearness
  0,                                      ! Rain Indicator
  0,                                      ! Snow Indicator
  21,                                     ! Day of Month
  1,                                      ! Month
  WinterDesignDay,                        ! Day Type
  0,                                      ! Daylight Saving Time Indicator
  Wetbulb,                                ! Humidity Indicating Type
  ,                                       ! Humidity Indicating Day Schedule Name
  DefaultMultipliers,                     ! Dry-Bulb Temperature Range Modifier Type
  ,                                       ! Dry-Bulb Temperature Range Modifier Schedule Name
  ASHRAEClearSky;                         ! Solar Model Indicator

OS:ComponentData,
  {ee566528-f806-4354-881f-ef2771f3d3e5}, ! Handle
  Component Data 1,                       ! Name
  {2118183e-fec7-431b-908f-b028bf016edc}, ! UUID
  {e73ce4ac-6a86-4758-a013-824a39ba915b}, ! Version UUID
  1366307003,                             ! Creation Timestamp
  1366307003,                             ! Version Timestamp
  {7de4cd21-98d5-4c99-a8a5-c03d3ce462bb}; ! Name of Object 1

