
OS:Version,
  {ec933544-1485-46a4-8fcf-3489b422fdcb}, ! Handle
  0.9.3;                                  ! Version Identifier

OS:SizingPeriod:DesignDay,
  {d96018ea-4f53-4552-ab6c-ba384291a647}, ! Handle
  CHICAGO Ann Clg .4% Condns DB=>MWB,     ! Name
  33.3,                                   ! Maximum Dry-Bulb Temperature {C}
  10.5,                                   ! Daily Dry-Bulb Temperature Range {deltaC}
  23.7,                                   ! Humidity Indicating Conditions at Maximum Dry-Bulb {BasedOnField A3}
  99063,                                  ! Barometric Pressure {Pa}
  5.2,                                    ! Wind Speed {m/s}
  230,                                    ! Wind Direction {deg}
  0,                                      ! Sky Clearness
  0,                                      ! Rain Indicator
  0,                                      ! Snow Indicator
  21,                                     ! Day of Month
  7,                                      ! Month
  SummerDesignDay,                        ! Day Type
  0,                                      ! Daylight Saving Time Indicator
  Wetbulb,                                ! Humidity Indicating Type
  ,                                       ! Humidity Indicating Day Schedule Name
  DefaultMultipliers,                     ! Dry-Bulb Temperature Range Modifier Type
  ,                                       ! Dry-Bulb Temperature Range Modifier Schedule Name
  ASHRAETau,                              ! Solar Model Indicator
  ,                                       ! Beam Solar Day Schedule Name
  ,                                       ! Diffuse Solar Day Schedule Name
  0.455,                                  ! ASHRAE Taub {dimensionless}
  2.05;                                   ! ASHRAE Taud {dimensionless}

OS:ComponentData,
  {93f5e32a-b75c-44de-82e0-d978126aec11}, ! Handle
  Component Data 1,                       ! Name
  {ce958779-4262-40ea-a476-6bfb6f0e9b6b}, ! UUID
  {969d9187-2340-44e7-8146-80bfff6a756b}, ! Version UUID
  1366307346,                             ! Creation Timestamp
  1366307346,                             ! Version Timestamp
  {d96018ea-4f53-4552-ab6c-ba384291a647}; ! Name of Object 1

