
OS:Version,
  {d1087a2c-6a49-437c-a584-4d0cc6b51733}, ! Handle
  0.9.3;                                  ! Version Identifier

OS:SizingPeriod:DesignDay,
  {a8db1199-cae5-4cb3-83c6-57d11e09fe3d}, ! Handle
  Auburn Lewiston Ann Clg .4% Condns Enth=>MDB, ! Name
  28.7,                                   ! Maximum Dry-Bulb Temperature {C}
  11.4,                                   ! Daily Dry-Bulb Temperature Range {deltaC}
  68700,                                  ! Humidity Indicating Conditions at Maximum Dry-Bulb {BasedOnField A3}
  100272,                                 ! Barometric Pressure {Pa}
  4,                                      ! Wind Speed {m/s}
  210,                                    ! Wind Direction {deg}
  0,                                      ! Sky Clearness
  0,                                      ! Rain Indicator
  0,                                      ! Snow Indicator
  21,                                     ! Day of Month
  7,                                      ! Month
  SummerDesignDay,                        ! Day Type
  0,                                      ! Daylight Saving Time Indicator
  Enthalpy,                               ! Humidity Indicating Type
  ,                                       ! Humidity Indicating Day Schedule Name
  DefaultMultipliers,                     ! Dry-Bulb Temperature Range Modifier Type
  ,                                       ! Dry-Bulb Temperature Range Modifier Schedule Name
  ASHRAETau,                              ! Solar Model Indicator
  ,                                       ! Beam Solar Day Schedule Name
  ,                                       ! Diffuse Solar Day Schedule Name
  0.462,                                  ! ASHRAE Taub {dimensionless}
  2.003;                                  ! ASHRAE Taud {dimensionless}

OS:ComponentData,
  {054c67fa-70f8-4d2a-842b-9e0751ea6a72}, ! Handle
  Component Data 1,                       ! Name
  {de01b1da-c319-4d63-80be-7995c08f274b}, ! UUID
  {2a62818f-09c5-48be-bbc6-80d183dd73c8}, ! Version UUID
  1366307866,                             ! Creation Timestamp
  1366307866,                             ! Version Timestamp
  {a8db1199-cae5-4cb3-83c6-57d11e09fe3d}; ! Name of Object 1

