
OS:Version,
  {3cd4ded6-8858-46b0-be44-216355f85c9e}, ! Handle
  0.9.3;                                  ! Version Identifier

OS:SizingPeriod:DesignDay,
  {af320de7-1b7f-4366-be46-2d147178fcdc}, ! Handle
  Cape Hatteras Ann Clg .4% Condns DB=>MWB, ! Name
  30.2,                                   ! Maximum Dry-Bulb Temperature {C}
  4.4,                                    ! Daily Dry-Bulb Temperature Range {deltaC}
  25.6,                                   ! Humidity Indicating Conditions at Maximum Dry-Bulb {BasedOnField A3}
  101289,                                 ! Barometric Pressure {Pa}
  4.4,                                    ! Wind Speed {m/s}
  0,                                      ! Wind Direction {deg}
  0,                                      ! Sky Clearness
  0,                                      ! Rain Indicator
  0,                                      ! Snow Indicator
  21,                                     ! Day of Month
  7,                                      ! Month
  SummerDesignDay,                        ! Day Type
  0,                                      ! Daylight Saving Time Indicator
  Wetbulb,                                ! Humidity Indicating Type
  ,                                       ! Humidity Indicating Day Schedule Name
  DefaultMultipliers,                     ! Dry-Bulb Temperature Range Modifier Type
  ,                                       ! Dry-Bulb Temperature Range Modifier Schedule Name
  ASHRAETau,                              ! Solar Model Indicator
  ,                                       ! Beam Solar Day Schedule Name
  ,                                       ! Diffuse Solar Day Schedule Name
  0.57,                                   ! ASHRAE Taub {dimensionless}
  1.801;                                  ! ASHRAE Taud {dimensionless}

OS:ComponentData,
  {042ae2e5-3848-49c7-a758-2f92161679d2}, ! Handle
  Component Data 1,                       ! Name
  {b70fc390-1830-4b76-9e95-984c4cc8c6c4}, ! UUID
  {d3917b5c-9b2b-4d9f-a108-11e2203ad5da}, ! Version UUID
  1366308872,                             ! Creation Timestamp
  1366308872,                             ! Version Timestamp
  {af320de7-1b7f-4366-be46-2d147178fcdc}; ! Name of Object 1

