
OS:Version,
  {fd0608ce-6d6f-41c7-8490-434e2b619f5e}, ! Handle
  0.9.3;                                  ! Version Identifier

OS:SizingPeriod:DesignDay,
  {0828baa7-e6a8-4c2b-946a-5e7ec8eeb74f}, ! Handle
  Alpena Ann Clg 1% Condns DB=>MWB,       ! Name
  29.2,                                   ! Maximum Dry-Bulb Temperature {C}
  12.7,                                   ! Daily Dry-Bulb Temperature Range {deltaC}
  20.9,                                   ! Humidity Indicating Conditions at Maximum Dry-Bulb {BasedOnField A3}
  98816,                                  ! Barometric Pressure {Pa}
  4.8,                                    ! Wind Speed {m/s}
  230,                                    ! Wind Direction {deg}
  0,                                      ! Sky Clearness
  0,                                      ! Rain Indicator
  0,                                      ! Snow Indicator
  21,                                     ! Day of Month
  7,                                      ! Month
  SummerDesignDay,                        ! Day Type
  0,                                      ! Daylight Saving Time Indicator
  Wetbulb,                                ! Humidity Indicating Type
  ,                                       ! Humidity Indicating Day Schedule Name
  DefaultMultipliers,                     ! Dry-Bulb Temperature Range Modifier Type
  ,                                       ! Dry-Bulb Temperature Range Modifier Schedule Name
  ASHRAETau,                              ! Solar Model Indicator
  ,                                       ! Beam Solar Day Schedule Name
  ,                                       ! Diffuse Solar Day Schedule Name
  0.42,                                   ! ASHRAE Taub {dimensionless}
  2.176;                                  ! ASHRAE Taud {dimensionless}

