
OS:Version,
  {f4ad3cdd-e3a8-4351-b8c7-09aa96a673c2}, ! Handle
  0.9.3;                                  ! Version Identifier

OS:SizingPeriod:DesignDay,
  {5a086d8c-d62b-4365-a4fe-0d5aca76fb93}, ! Handle
  Fair Field Ann Clg 2% Condns DB=>MWB,   ! Name
  32,                                     ! Maximum Dry-Bulb Temperature {C}
  11,                                     ! Daily Dry-Bulb Temperature Range {deltaC}
  24.9,                                   ! Humidity Indicating Conditions at Maximum Dry-Bulb {BasedOnField A3}
  98428,                                  ! Barometric Pressure {Pa}
  4.1,                                    ! Wind Speed {m/s}
  200,                                    ! Wind Direction {deg}
  0,                                      ! Sky Clearness
  0,                                      ! Rain Indicator
  0,                                      ! Snow Indicator
  21,                                     ! Day of Month
  7,                                      ! Month
  SummerDesignDay,                        ! Day Type
  0,                                      ! Daylight Saving Time Indicator
  Wetbulb,                                ! Humidity Indicating Type
  ,                                       ! Humidity Indicating Day Schedule Name
  DefaultMultipliers,                     ! Dry-Bulb Temperature Range Modifier Type
  ,                                       ! Dry-Bulb Temperature Range Modifier Schedule Name
  ASHRAETau,                              ! Solar Model Indicator
  ,                                       ! Beam Solar Day Schedule Name
  ,                                       ! Diffuse Solar Day Schedule Name
  0.444,                                  ! ASHRAE Taub {dimensionless}
  2.09;                                   ! ASHRAE Taud {dimensionless}

OS:ComponentData,
  {2faa6de6-eafb-4bbc-9e6d-a4f57f422891}, ! Handle
  Component Data 1,                       ! Name
  {9005a410-12d5-4cb6-9a75-5ea95e1df458}, ! UUID
  {eada9822-c036-4701-934f-5818680a597c}, ! Version UUID
  1366307193,                             ! Creation Timestamp
  1366307193,                             ! Version Timestamp
  {5a086d8c-d62b-4365-a4fe-0d5aca76fb93}; ! Name of Object 1

