
OS:Version,
  {f7540445-a632-4767-a749-a851185a992d}, ! Handle
  0.9.3;                                  ! Version Identifier

OS:SizingPeriod:DesignDay,
  {b8ac1147-1d0f-4898-b0b7-3e572aed90a0}, ! Handle
  BAKERSFIELD Ann Clg 1% Condns WB=>MDB,  ! Name
  35.3,                                   ! Maximum Dry-Bulb Temperature {C}
  14.9,                                   ! Daily Dry-Bulb Temperature Range {deltaC}
  22.4,                                   ! Humidity Indicating Conditions at Maximum Dry-Bulb {BasedOnField A3}
  99536,                                  ! Barometric Pressure {Pa}
  5.3,                                    ! Wind Speed {m/s}
  300,                                    ! Wind Direction {deg}
  0,                                      ! Sky Clearness
  0,                                      ! Rain Indicator
  0,                                      ! Snow Indicator
  21,                                     ! Day of Month
  7,                                      ! Month
  SummerDesignDay,                        ! Day Type
  0,                                      ! Daylight Saving Time Indicator
  Wetbulb,                                ! Humidity Indicating Type
  ,                                       ! Humidity Indicating Day Schedule Name
  DefaultMultipliers,                     ! Dry-Bulb Temperature Range Modifier Type
  ,                                       ! Dry-Bulb Temperature Range Modifier Schedule Name
  ASHRAETau,                              ! Solar Model Indicator
  ,                                       ! Beam Solar Day Schedule Name
  ,                                       ! Diffuse Solar Day Schedule Name
  0.438,                                  ! ASHRAE Taub {dimensionless}
  2.106;                                  ! ASHRAE Taud {dimensionless}

OS:ComponentData,
  {48a07598-8705-4d6b-9a3a-c56b09c41a60}, ! Handle
  Component Data 1,                       ! Name
  {250fc2b9-5bd7-4246-aa09-53ac96c9f41d}, ! UUID
  {68ac9bda-26f1-41de-b446-defe99fa52d6}, ! Version UUID
  1366306369,                             ! Creation Timestamp
  1366306369,                             ! Version Timestamp
  {b8ac1147-1d0f-4898-b0b7-3e572aed90a0}; ! Name of Object 1

