
OS:Version,
  {6e04fa2e-0cd2-4367-957d-e8a4629025eb}, ! Handle
  0.9.3;                                  ! Version Identifier

OS:SizingPeriod:DesignDay,
  {b42a4d44-425f-4acb-a32b-4745cafd4f40}, ! Handle
  LYNCHBURG Ann Clg 1% Condns Enth=>MDB,  ! Name
  29.8,                                   ! Maximum Dry-Bulb Temperature {C}
  10.7,                                   ! Daily Dry-Bulb Temperature Range {deltaC}
  73600,                                  ! Humidity Indicating Conditions at Maximum Dry-Bulb {BasedOnField A3}
  98018,                                  ! Barometric Pressure {Pa}
  3.3,                                    ! Wind Speed {m/s}
  240,                                    ! Wind Direction {deg}
  0,                                      ! Sky Clearness
  0,                                      ! Rain Indicator
  0,                                      ! Snow Indicator
  21,                                     ! Day of Month
  7,                                      ! Month
  SummerDesignDay,                        ! Day Type
  0,                                      ! Daylight Saving Time Indicator
  Enthalpy,                               ! Humidity Indicating Type
  ,                                       ! Humidity Indicating Day Schedule Name
  DefaultMultipliers,                     ! Dry-Bulb Temperature Range Modifier Type
  ,                                       ! Dry-Bulb Temperature Range Modifier Schedule Name
  ASHRAETau,                              ! Solar Model Indicator
  ,                                       ! Beam Solar Day Schedule Name
  ,                                       ! Diffuse Solar Day Schedule Name
  0.531,                                  ! ASHRAE Taub {dimensionless}
  1.818;                                  ! ASHRAE Taud {dimensionless}

