
OS:Version,
  {d6edf584-d785-4430-bc0e-fccffbd61c3f}, ! Handle
  0.9.3;                                  ! Version Identifier

OS:SizingPeriod:DesignDay,
  {5303de35-b4ee-4548-a7d0-074d2397259b}, ! Handle
  Astoria Regional Airport Ann Clg 2% Condns DB=>MWB, ! Name
  20.7,                                   ! Maximum Dry-Bulb Temperature {C}
  7.9,                                    ! Daily Dry-Bulb Temperature Range {deltaC}
  16.1,                                   ! Humidity Indicating Conditions at Maximum Dry-Bulb {BasedOnField A3}
  101289,                                 ! Barometric Pressure {Pa}
  5.1,                                    ! Wind Speed {m/s}
  310,                                    ! Wind Direction {deg}
  0,                                      ! Sky Clearness
  0,                                      ! Rain Indicator
  0,                                      ! Snow Indicator
  21,                                     ! Day of Month
  8,                                      ! Month
  SummerDesignDay,                        ! Day Type
  0,                                      ! Daylight Saving Time Indicator
  Wetbulb,                                ! Humidity Indicating Type
  ,                                       ! Humidity Indicating Day Schedule Name
  DefaultMultipliers,                     ! Dry-Bulb Temperature Range Modifier Type
  ,                                       ! Dry-Bulb Temperature Range Modifier Schedule Name
  ASHRAETau,                              ! Solar Model Indicator
  ,                                       ! Beam Solar Day Schedule Name
  ,                                       ! Diffuse Solar Day Schedule Name
  0.355,                                  ! ASHRAE Taub {dimensionless}
  2.571;                                  ! ASHRAE Taud {dimensionless}

OS:ComponentData,
  {eb0afbbf-8d67-4430-8f1c-a9871d1197e0}, ! Handle
  Component Data 1,                       ! Name
  {58d0a6ec-83a8-4ef1-8302-2fac6fec4d5b}, ! UUID
  {9ff1944f-9e0f-44eb-a123-7fa5f76aec9d}, ! Version UUID
  1366309978,                             ! Creation Timestamp
  1366309978,                             ! Version Timestamp
  {5303de35-b4ee-4548-a7d0-074d2397259b}; ! Name of Object 1

