
OS:Version,
  {d5e492db-3830-4dd7-acd4-5fc5f8fff044}, ! Handle
  0.9.3;                                  ! Version Identifier

OS:SizingPeriod:DesignDay,
  {41ea83af-cae3-4414-89ad-dd060ae93484}, ! Handle
  Binghamton Edwin A Link Field Ann Htg 99% Condns DB, ! Name
  -15.8,                                  ! Maximum Dry-Bulb Temperature {C}
  0,                                      ! Daily Dry-Bulb Temperature Range {deltaC}
  -15.8,                                  ! Humidity Indicating Conditions at Maximum Dry-Bulb {BasedOnField A3}
  95598,                                  ! Barometric Pressure {Pa}
  4.6,                                    ! Wind Speed {m/s}
  250,                                    ! Wind Direction {deg}
  0,                                      ! Sky Clearness
  0,                                      ! Rain Indicator
  0,                                      ! Snow Indicator
  21,                                     ! Day of Month
  1,                                      ! Month
  WinterDesignDay,                        ! Day Type
  0,                                      ! Daylight Saving Time Indicator
  Wetbulb,                                ! Humidity Indicating Type
  ,                                       ! Humidity Indicating Day Schedule Name
  DefaultMultipliers,                     ! Dry-Bulb Temperature Range Modifier Type
  ,                                       ! Dry-Bulb Temperature Range Modifier Schedule Name
  ASHRAEClearSky;                         ! Solar Model Indicator

OS:ComponentData,
  {093a4154-4929-4ab7-a9d9-a1fa8b397ed1}, ! Handle
  Component Data 1,                       ! Name
  {7a1da6a5-1cfb-4353-9534-417bf79f5324}, ! UUID
  {06ceb8c7-dfba-4282-8386-4810e11a6b8b}, ! Version UUID
  1366309592,                             ! Creation Timestamp
  1366309592,                             ! Version Timestamp
  {41ea83af-cae3-4414-89ad-dd060ae93484}; ! Name of Object 1

