
OS:Version,
  {c839b568-ef1d-45da-b7ae-3a2cf290d5a8}, ! Handle
  0.9.3;                                  ! Version Identifier

OS:SizingPeriod:DesignDay,
  {542a8493-cdcb-40b3-b503-1c3070f06343}, ! Handle
  Anchorage Intl Ap Ann Clg .4% Condns Enth=>MDB, ! Name
  20.7,                                   ! Maximum Dry-Bulb Temperature {C}
  6.6,                                    ! Daily Dry-Bulb Temperature Range {deltaC}
  43900,                                  ! Humidity Indicating Conditions at Maximum Dry-Bulb {BasedOnField A3}
  100905,                                 ! Barometric Pressure {Pa}
  3.6,                                    ! Wind Speed {m/s}
  300,                                    ! Wind Direction {deg}
  0,                                      ! Sky Clearness
  0,                                      ! Rain Indicator
  0,                                      ! Snow Indicator
  21,                                     ! Day of Month
  7,                                      ! Month
  SummerDesignDay,                        ! Day Type
  0,                                      ! Daylight Saving Time Indicator
  Enthalpy,                               ! Humidity Indicating Type
  ,                                       ! Humidity Indicating Day Schedule Name
  DefaultMultipliers,                     ! Dry-Bulb Temperature Range Modifier Type
  ,                                       ! Dry-Bulb Temperature Range Modifier Schedule Name
  ASHRAETau,                              ! Solar Model Indicator
  ,                                       ! Beam Solar Day Schedule Name
  ,                                       ! Diffuse Solar Day Schedule Name
  0.387,                                  ! ASHRAE Taub {dimensionless}
  2.172;                                  ! ASHRAE Taud {dimensionless}

OS:ComponentData,
  {7681b527-51b1-4d5f-bb2b-38cdbb96541c}, ! Handle
  Component Data 1,                       ! Name
  {ebc3daa1-0b46-4bba-a44e-20d8ecc317ec}, ! UUID
  {adb3314b-120d-4bd4-aaba-4190e38e696e}, ! Version UUID
  1366304710,                             ! Creation Timestamp
  1366304710,                             ! Version Timestamp
  {542a8493-cdcb-40b3-b503-1c3070f06343}; ! Name of Object 1

