
OS:Version,
  {f6aeb25a-102f-411d-8035-fce757244af8}, ! Handle
  0.9.3;                                  ! Version Identifier

OS:SizingPeriod:DesignDay,
  {195c40e0-8652-49d3-a90b-3022b5556a70}, ! Handle
  King Salmon Ann Clg 2% Condns WB=>MDB,  ! Name
  17.3,                                   ! Maximum Dry-Bulb Temperature {C}
  8.6,                                    ! Daily Dry-Bulb Temperature Range {deltaC}
  13.9,                                   ! Humidity Indicating Conditions at Maximum Dry-Bulb {BasedOnField A3}
  101145,                                 ! Barometric Pressure {Pa}
  4.8,                                    ! Wind Speed {m/s}
  270,                                    ! Wind Direction {deg}
  0,                                      ! Sky Clearness
  0,                                      ! Rain Indicator
  0,                                      ! Snow Indicator
  21,                                     ! Day of Month
  7,                                      ! Month
  SummerDesignDay,                        ! Day Type
  0,                                      ! Daylight Saving Time Indicator
  Wetbulb,                                ! Humidity Indicating Type
  ,                                       ! Humidity Indicating Day Schedule Name
  DefaultMultipliers,                     ! Dry-Bulb Temperature Range Modifier Type
  ,                                       ! Dry-Bulb Temperature Range Modifier Schedule Name
  ASHRAETau,                              ! Solar Model Indicator
  ,                                       ! Beam Solar Day Schedule Name
  ,                                       ! Diffuse Solar Day Schedule Name
  0.384,                                  ! ASHRAE Taub {dimensionless}
  2.227;                                  ! ASHRAE Taud {dimensionless}

OS:ComponentData,
  {34169691-645b-4d36-88d8-8196bd7148bd}, ! Handle
  Component Data 1,                       ! Name
  {902a23f3-4124-4732-b3f4-49d94e372130}, ! UUID
  {6ad01a9f-2bfd-4e78-93a0-f4110a0af42b}, ! Version UUID
  1366305363,                             ! Creation Timestamp
  1366305363,                             ! Version Timestamp
  {195c40e0-8652-49d3-a90b-3022b5556a70}; ! Name of Object 1

