
OS:Version,
  {d517d23f-31c3-4c7b-a05c-cc58550c134b}, ! Handle
  0.9.3;                                  ! Version Identifier

OS:SizingPeriod:DesignDay,
  {cf12152e-6019-4479-b464-3f336242fe1f}, ! Handle
  ANNETTE Ann Clg .4% Condns DB=>MWB,     ! Name
  22.7,                                   ! Maximum Dry-Bulb Temperature {C}
  5.2,                                    ! Daily Dry-Bulb Temperature Range {deltaC}
  16,                                     ! Humidity Indicating Conditions at Maximum Dry-Bulb {BasedOnField A3}
  100917,                                 ! Barometric Pressure {Pa}
  3.4,                                    ! Wind Speed {m/s}
  300,                                    ! Wind Direction {deg}
  0,                                      ! Sky Clearness
  0,                                      ! Rain Indicator
  0,                                      ! Snow Indicator
  21,                                     ! Day of Month
  8,                                      ! Month
  SummerDesignDay,                        ! Day Type
  0,                                      ! Daylight Saving Time Indicator
  Wetbulb,                                ! Humidity Indicating Type
  ,                                       ! Humidity Indicating Day Schedule Name
  DefaultMultipliers,                     ! Dry-Bulb Temperature Range Modifier Type
  ,                                       ! Dry-Bulb Temperature Range Modifier Schedule Name
  ASHRAETau,                              ! Solar Model Indicator
  ,                                       ! Beam Solar Day Schedule Name
  ,                                       ! Diffuse Solar Day Schedule Name
  0.369,                                  ! ASHRAE Taub {dimensionless}
  2.372;                                  ! ASHRAE Taud {dimensionless}

OS:ComponentData,
  {348b4fe2-fd7f-4b52-b41e-70a169aca186}, ! Handle
  Component Data 1,                       ! Name
  {744c29ef-6741-46da-9a76-79fcfaec4866}, ! UUID
  {a0399512-a47e-4a5c-bf33-50207863e81c}, ! Version UUID
  1366304715,                             ! Creation Timestamp
  1366304715,                             ! Version Timestamp
  {cf12152e-6019-4479-b464-3f336242fe1f}; ! Name of Object 1

