
OS:Version,
  {d87e2ed6-6c09-4727-a2ff-99827ef69189}, ! Handle
  0.9.3;                                  ! Version Identifier

OS:SizingPeriod:DesignDay,
  {48ed3f59-901b-4abb-a584-ec479c811266}, ! Handle
  Cody Muni  Awos Ann Clg 2% Condns DP=>MDB, ! Name
  19,                                     ! Maximum Dry-Bulb Temperature {C}
  14.2,                                   ! Daily Dry-Bulb Temperature Range {deltaC}
  10.1,                                   ! Humidity Indicating Conditions at Maximum Dry-Bulb {BasedOnField A3}
  84007,                                  ! Barometric Pressure {Pa}
  4.3,                                    ! Wind Speed {m/s}
  260,                                    ! Wind Direction {deg}
  0,                                      ! Sky Clearness
  0,                                      ! Rain Indicator
  0,                                      ! Snow Indicator
  21,                                     ! Day of Month
  7,                                      ! Month
  SummerDesignDay,                        ! Day Type
  0,                                      ! Daylight Saving Time Indicator
  Dewpoint,                               ! Humidity Indicating Type
  ,                                       ! Humidity Indicating Day Schedule Name
  DefaultMultipliers,                     ! Dry-Bulb Temperature Range Modifier Type
  ,                                       ! Dry-Bulb Temperature Range Modifier Schedule Name
  ASHRAETau,                              ! Solar Model Indicator
  ,                                       ! Beam Solar Day Schedule Name
  ,                                       ! Diffuse Solar Day Schedule Name
  0.42,                                   ! ASHRAE Taub {dimensionless}
  1.989;                                  ! ASHRAE Taud {dimensionless}

OS:ComponentData,
  {173d4eba-0505-4b2d-8ac4-bda5539520ac}, ! Handle
  Component Data 1,                       ! Name
  {457da915-2d1e-4b79-a448-443eaab0f53c}, ! UUID
  {9fa1ecf4-99d8-46db-9c6c-c7dd03ec0b22}, ! Version UUID
  1366311722,                             ! Creation Timestamp
  1366311722,                             ! Version Timestamp
  {48ed3f59-901b-4abb-a584-ec479c811266}; ! Name of Object 1

