
OS:Version,
  {2e90972f-1d98-45b4-9f42-75518376f661}, ! Handle
  0.9.3;                                  ! Version Identifier

OS:SizingPeriod:DesignDay,
  {b6d6cc73-0e0d-4ef9-827b-d1840587535c}, ! Handle
  Glasgow Intl Arpt Ann Clg 1% Condns DB=>MWB, ! Name
  33,                                     ! Maximum Dry-Bulb Temperature {C}
  14.5,                                   ! Daily Dry-Bulb Temperature Range {deltaC}
  17.7,                                   ! Humidity Indicating Conditions at Maximum Dry-Bulb {BasedOnField A3}
  93205,                                  ! Barometric Pressure {Pa}
  5.4,                                    ! Wind Speed {m/s}
  150,                                    ! Wind Direction {deg}
  0,                                      ! Sky Clearness
  0,                                      ! Rain Indicator
  0,                                      ! Snow Indicator
  21,                                     ! Day of Month
  7,                                      ! Month
  SummerDesignDay,                        ! Day Type
  0,                                      ! Daylight Saving Time Indicator
  Wetbulb,                                ! Humidity Indicating Type
  ,                                       ! Humidity Indicating Day Schedule Name
  DefaultMultipliers,                     ! Dry-Bulb Temperature Range Modifier Type
  ,                                       ! Dry-Bulb Temperature Range Modifier Schedule Name
  ASHRAETau,                              ! Solar Model Indicator
  ,                                       ! Beam Solar Day Schedule Name
  ,                                       ! Diffuse Solar Day Schedule Name
  0.424,                                  ! ASHRAE Taub {dimensionless}
  2.044;                                  ! ASHRAE Taud {dimensionless}

OS:ComponentData,
  {31dd4585-270a-4187-8bd9-62d0b8fe47f8}, ! Handle
  Component Data 1,                       ! Name
  {47815ef2-5933-44a4-a24d-7649c7fdcc2e}, ! UUID
  {782fc61f-0536-46f4-8cf5-68ffc5990b41}, ! Version UUID
  1366308763,                             ! Creation Timestamp
  1366308763,                             ! Version Timestamp
  {b6d6cc73-0e0d-4ef9-827b-d1840587535c}; ! Name of Object 1

