
OS:Version,
  {54139285-ca81-438f-8e6e-88f103bd3cfe}, ! Handle
  0.9.3;                                  ! Version Identifier

OS:SizingPeriod:DesignDay,
  {37757eb2-e79a-40d1-82c1-c0045ae03b1a}, ! Handle
  Key West Intl Arpt Ann Htg Wind 99.6% Condns WS=>MCDB, ! Name
  19.4,                                   ! Maximum Dry-Bulb Temperature {C}
  0,                                      ! Daily Dry-Bulb Temperature Range {deltaC}
  19.4,                                   ! Humidity Indicating Conditions at Maximum Dry-Bulb {BasedOnField A3}
  101313,                                 ! Barometric Pressure {Pa}
  11.6,                                   ! Wind Speed {m/s}
  20,                                     ! Wind Direction {deg}
  0,                                      ! Sky Clearness
  0,                                      ! Rain Indicator
  0,                                      ! Snow Indicator
  21,                                     ! Day of Month
  1,                                      ! Month
  WinterDesignDay,                        ! Day Type
  0,                                      ! Daylight Saving Time Indicator
  Wetbulb,                                ! Humidity Indicating Type
  ,                                       ! Humidity Indicating Day Schedule Name
  DefaultMultipliers,                     ! Dry-Bulb Temperature Range Modifier Type
  ,                                       ! Dry-Bulb Temperature Range Modifier Schedule Name
  ASHRAEClearSky;                         ! Solar Model Indicator

OS:ComponentData,
  {61a0a13f-c8f2-4f14-bd84-42b40099218b}, ! Handle
  Component Data 1,                       ! Name
  {09efd303-4d39-4aa9-9c67-9c7244c065da}, ! UUID
  {7bf12de3-f4f4-44f0-8b2e-546e4531d1d3}, ! Version UUID
  1366306835,                             ! Creation Timestamp
  1366306835,                             ! Version Timestamp
  {37757eb2-e79a-40d1-82c1-c0045ae03b1a}; ! Name of Object 1

