
OS:Version,
  {d1619839-33c7-4841-8080-a63128998f48}, ! Handle
  0.9.3;                                  ! Version Identifier

OS:SizingPeriod:DesignDay,
  {d553b74f-b9f7-45c4-a9bf-6500bc96c730}, ! Handle
  Davison Aaf Ann Htg 99% Condns DB,      ! Name
  -7.8,                                   ! Maximum Dry-Bulb Temperature {C}
  0,                                      ! Daily Dry-Bulb Temperature Range {deltaC}
  -7.8,                                   ! Humidity Indicating Conditions at Maximum Dry-Bulb {BasedOnField A3}
  101001,                                 ! Barometric Pressure {Pa}
  1.6,                                    ! Wind Speed {m/s}
  320,                                    ! Wind Direction {deg}
  0,                                      ! Sky Clearness
  0,                                      ! Rain Indicator
  0,                                      ! Snow Indicator
  21,                                     ! Day of Month
  1,                                      ! Month
  WinterDesignDay,                        ! Day Type
  0,                                      ! Daylight Saving Time Indicator
  Wetbulb,                                ! Humidity Indicating Type
  ,                                       ! Humidity Indicating Day Schedule Name
  DefaultMultipliers,                     ! Dry-Bulb Temperature Range Modifier Type
  ,                                       ! Dry-Bulb Temperature Range Modifier Schedule Name
  ASHRAEClearSky;                         ! Solar Model Indicator

OS:ComponentData,
  {4e4f60d2-d3a4-40bf-9107-b02b1c5fbb2d}, ! Handle
  Component Data 1,                       ! Name
  {b220cb60-5139-4296-a9f3-68e488e1c8ab}, ! UUID
  {24ee02d0-015c-4de9-9158-f8c3dee41fdb}, ! Version UUID
  1366311033,                             ! Creation Timestamp
  1366311033,                             ! Version Timestamp
  {d553b74f-b9f7-45c4-a9bf-6500bc96c730}; ! Name of Object 1

