
OS:Version,
  {8629b61a-ebee-4cc7-9ab9-abe8d8039cae}, ! Handle
  0.9.3;                                  ! Version Identifier

OS:SizingPeriod:DesignDay,
  {3a831e1b-ddb4-48ee-8da4-7ff51ef76fb8}, ! Handle
  Hartford/Brainard Fiel Ann Clg 2% Condns DB=>MWB, ! Name
  29.7,                                   ! Maximum Dry-Bulb Temperature {C}
  11.4,                                   ! Daily Dry-Bulb Temperature Range {deltaC}
  21.3,                                   ! Humidity Indicating Conditions at Maximum Dry-Bulb {BasedOnField A3}
  101253,                                 ! Barometric Pressure {Pa}
  4.5,                                    ! Wind Speed {m/s}
  220,                                    ! Wind Direction {deg}
  0,                                      ! Sky Clearness
  0,                                      ! Rain Indicator
  0,                                      ! Snow Indicator
  21,                                     ! Day of Month
  7,                                      ! Month
  SummerDesignDay,                        ! Day Type
  0,                                      ! Daylight Saving Time Indicator
  Wetbulb,                                ! Humidity Indicating Type
  ,                                       ! Humidity Indicating Day Schedule Name
  DefaultMultipliers,                     ! Dry-Bulb Temperature Range Modifier Type
  ,                                       ! Dry-Bulb Temperature Range Modifier Schedule Name
  ASHRAETau,                              ! Solar Model Indicator
  ,                                       ! Beam Solar Day Schedule Name
  ,                                       ! Diffuse Solar Day Schedule Name
  0.486,                                  ! ASHRAE Taub {dimensionless}
  1.943;                                  ! ASHRAE Taud {dimensionless}

OS:ComponentData,
  {c49ffa22-f730-4136-8b15-ffd0eb8471a8}, ! Handle
  Component Data 1,                       ! Name
  {12282cc8-fe67-46af-9e3d-cb2760096f1e}, ! UUID
  {a1d0a310-91eb-4551-95ce-59f8b0f23612}, ! Version UUID
  1366306753,                             ! Creation Timestamp
  1366306753,                             ! Version Timestamp
  {3a831e1b-ddb4-48ee-8da4-7ff51ef76fb8}; ! Name of Object 1

