
OS:Version,
  {f54f4e9d-91f1-4f71-8d28-e981ba382eff}, ! Handle
  0.9.3;                                  ! Version Identifier

OS:SizingPeriod:DesignDay,
  {66258b98-e789-43fb-be9b-f7b598ddee78}, ! Handle
  Corpus Christi Nas Ann Clg 1% Condns DB=>MWB, ! Name
  33.4,                                   ! Maximum Dry-Bulb Temperature {C}
  6.7,                                    ! Daily Dry-Bulb Temperature Range {deltaC}
  26.2,                                   ! Humidity Indicating Conditions at Maximum Dry-Bulb {BasedOnField A3}
  101253,                                 ! Barometric Pressure {Pa}
  6.1,                                    ! Wind Speed {m/s}
  150,                                    ! Wind Direction {deg}
  0,                                      ! Sky Clearness
  0,                                      ! Rain Indicator
  0,                                      ! Snow Indicator
  21,                                     ! Day of Month
  8,                                      ! Month
  SummerDesignDay,                        ! Day Type
  0,                                      ! Daylight Saving Time Indicator
  Wetbulb,                                ! Humidity Indicating Type
  ,                                       ! Humidity Indicating Day Schedule Name
  DefaultMultipliers,                     ! Dry-Bulb Temperature Range Modifier Type
  ,                                       ! Dry-Bulb Temperature Range Modifier Schedule Name
  ASHRAETau,                              ! Solar Model Indicator
  ,                                       ! Beam Solar Day Schedule Name
  ,                                       ! Diffuse Solar Day Schedule Name
  0.465,                                  ! ASHRAE Taub {dimensionless}
  2.117;                                  ! ASHRAE Taud {dimensionless}

OS:ComponentData,
  {82df7715-f94f-41e7-8cd8-1e35c78ebf2e}, ! Handle
  Component Data 1,                       ! Name
  {788430f7-03f8-4130-8bbd-eb302e693b01}, ! UUID
  {d657af1c-19a7-45be-84cd-22ad8e361d57}, ! Version UUID
  1366310634,                             ! Creation Timestamp
  1366310634,                             ! Version Timestamp
  {66258b98-e789-43fb-be9b-f7b598ddee78}; ! Name of Object 1

