
OS:Version,
  {464da9d2-4422-4142-9779-40e7d3fda6de}, ! Handle
  0.9.3;                                  ! Version Identifier

OS:SizingPeriod:DesignDay,
  {a1a8c5aa-7284-4ba0-9b16-ccc0012aac49}, ! Handle
  Lihue Airport Ann Clg 2% Condns WB=>MDB, ! Name
  27.4,                                   ! Maximum Dry-Bulb Temperature {C}
  4.8,                                    ! Daily Dry-Bulb Temperature Range {deltaC}
  24.3,                                   ! Humidity Indicating Conditions at Maximum Dry-Bulb {BasedOnField A3}
  100953,                                 ! Barometric Pressure {Pa}
  6.4,                                    ! Wind Speed {m/s}
  60,                                     ! Wind Direction {deg}
  0,                                      ! Sky Clearness
  0,                                      ! Rain Indicator
  0,                                      ! Snow Indicator
  21,                                     ! Day of Month
  8,                                      ! Month
  SummerDesignDay,                        ! Day Type
  0,                                      ! Daylight Saving Time Indicator
  Wetbulb,                                ! Humidity Indicating Type
  ,                                       ! Humidity Indicating Day Schedule Name
  DefaultMultipliers,                     ! Dry-Bulb Temperature Range Modifier Type
  ,                                       ! Dry-Bulb Temperature Range Modifier Schedule Name
  ASHRAETau,                              ! Solar Model Indicator
  ,                                       ! Beam Solar Day Schedule Name
  ,                                       ! Diffuse Solar Day Schedule Name
  0.385,                                  ! ASHRAE Taub {dimensionless}
  2.509;                                  ! ASHRAE Taud {dimensionless}

OS:ComponentData,
  {bf6852fb-a570-4098-b583-4ee947f72ffa}, ! Handle
  Component Data 1,                       ! Name
  {30812f60-8546-41a8-ab87-7be38d99220c}, ! UUID
  {c00d800f-9aa5-43ed-9feb-7b106f5aac9e}, ! Version UUID
  1366307121,                             ! Creation Timestamp
  1366307121,                             ! Version Timestamp
  {a1a8c5aa-7284-4ba0-9b16-ccc0012aac49}; ! Name of Object 1

