
OS:Version,
  {cd5f8d75-4cfe-4dc4-a258-9738229a2d20}, ! Handle
  0.9.3;                                  ! Version Identifier

OS:SizingPeriod:DesignDay,
  {26714ac7-786b-432e-8be0-985feac38f6d}, ! Handle
  Alexandria Municipal Ap Ann Clg 1% Condns DB=>MWB, ! Name
  29.8,                                   ! Maximum Dry-Bulb Temperature {C}
  10.4,                                   ! Daily Dry-Bulb Temperature Range {deltaC}
  21.4,                                   ! Humidity Indicating Conditions at Maximum Dry-Bulb {BasedOnField A3}
  96230,                                  ! Barometric Pressure {Pa}
  6.2,                                    ! Wind Speed {m/s}
  180,                                    ! Wind Direction {deg}
  0,                                      ! Sky Clearness
  0,                                      ! Rain Indicator
  0,                                      ! Snow Indicator
  21,                                     ! Day of Month
  7,                                      ! Month
  SummerDesignDay,                        ! Day Type
  0,                                      ! Daylight Saving Time Indicator
  Wetbulb,                                ! Humidity Indicating Type
  ,                                       ! Humidity Indicating Day Schedule Name
  DefaultMultipliers,                     ! Dry-Bulb Temperature Range Modifier Type
  ,                                       ! Dry-Bulb Temperature Range Modifier Schedule Name
  ASHRAETau,                              ! Solar Model Indicator
  ,                                       ! Beam Solar Day Schedule Name
  ,                                       ! Diffuse Solar Day Schedule Name
  0.39,                                   ! ASHRAE Taub {dimensionless}
  2.268;                                  ! ASHRAE Taud {dimensionless}

OS:ComponentData,
  {6faf564a-cdc5-474c-8fb5-8e075f5a66c8}, ! Handle
  Component Data 1,                       ! Name
  {a09b0075-b0e8-438a-8513-82252ac2792c}, ! UUID
  {30a341e3-0eb4-4bd8-9c8c-def04aa74dcf}, ! Version UUID
  1366308144,                             ! Creation Timestamp
  1366308144,                             ! Version Timestamp
  {26714ac7-786b-432e-8be0-985feac38f6d}; ! Name of Object 1

