
OS:Version,
  {0e92763f-7788-4d84-b934-0b37bfc94322}, ! Handle
  0.9.3;                                  ! Version Identifier

OS:SizingPeriod:DesignDay,
  {e303e4a6-abbf-4829-94af-9ac464bb9796}, ! Handle
  College Station Easterwood Fl Ann Htg 99.6% Condns DB, ! Name
  -3.3,                                   ! Maximum Dry-Bulb Temperature {C}
  0,                                      ! Daily Dry-Bulb Temperature Range {deltaC}
  -3.3,                                   ! Humidity Indicating Conditions at Maximum Dry-Bulb {BasedOnField A3}
  100177,                                 ! Barometric Pressure {Pa}
  3.8,                                    ! Wind Speed {m/s}
  350,                                    ! Wind Direction {deg}
  0,                                      ! Sky Clearness
  0,                                      ! Rain Indicator
  0,                                      ! Snow Indicator
  21,                                     ! Day of Month
  1,                                      ! Month
  WinterDesignDay,                        ! Day Type
  0,                                      ! Daylight Saving Time Indicator
  Wetbulb,                                ! Humidity Indicating Type
  ,                                       ! Humidity Indicating Day Schedule Name
  DefaultMultipliers,                     ! Dry-Bulb Temperature Range Modifier Type
  ,                                       ! Dry-Bulb Temperature Range Modifier Schedule Name
  ASHRAEClearSky;                         ! Solar Model Indicator

OS:ComponentData,
  {b1cfc5f7-da29-49ee-8542-e0d7f2429af6}, ! Handle
  Component Data 1,                       ! Name
  {e192e5be-f012-4885-a8e0-84dbdd1e439f}, ! UUID
  {27140006-3f66-48a6-a693-945818bb487d}, ! Version UUID
  1366310617,                             ! Creation Timestamp
  1366310617,                             ! Version Timestamp
  {e303e4a6-abbf-4829-94af-9ac464bb9796}; ! Name of Object 1

