
OS:Version,
  {1e4cc0ea-7d5d-4577-98d8-53698b7ec550}, ! Handle
  0.9.3;                                  ! Version Identifier

OS:SizingPeriod:DesignDay,
  {a75321c6-a1d6-4a99-aeee-0914cde170a7}, ! Handle
  Corpus Christi Ann Clg .4% Condns DB=>MWB, ! Name
  35.5,                                   ! Maximum Dry-Bulb Temperature {C}
  10.1,                                   ! Daily Dry-Bulb Temperature Range {deltaC}
  25.4,                                   ! Humidity Indicating Conditions at Maximum Dry-Bulb {BasedOnField A3}
  101169,                                 ! Barometric Pressure {Pa}
  6.6,                                    ! Wind Speed {m/s}
  140,                                    ! Wind Direction {deg}
  0,                                      ! Sky Clearness
  0,                                      ! Rain Indicator
  0,                                      ! Snow Indicator
  21,                                     ! Day of Month
  8,                                      ! Month
  SummerDesignDay,                        ! Day Type
  0,                                      ! Daylight Saving Time Indicator
  Wetbulb,                                ! Humidity Indicating Type
  ,                                       ! Humidity Indicating Day Schedule Name
  DefaultMultipliers,                     ! Dry-Bulb Temperature Range Modifier Type
  ,                                       ! Dry-Bulb Temperature Range Modifier Schedule Name
  ASHRAETau,                              ! Solar Model Indicator
  ,                                       ! Beam Solar Day Schedule Name
  ,                                       ! Diffuse Solar Day Schedule Name
  0.463,                                  ! ASHRAE Taub {dimensionless}
  2.116;                                  ! ASHRAE Taud {dimensionless}

OS:ComponentData,
  {4b1743a0-aeb9-434d-b1d6-e1d9b70be14f}, ! Handle
  Component Data 1,                       ! Name
  {12ee126b-13b3-4c9a-87ec-abb257c4ab0e}, ! UUID
  {6b7d00ed-e6f1-4eb2-b88f-3c90007593ad}, ! Version UUID
  1366310626,                             ! Creation Timestamp
  1366310626,                             ! Version Timestamp
  {a75321c6-a1d6-4a99-aeee-0914cde170a7}; ! Name of Object 1

