
OS:Version,
  {0eb7cc71-7c40-41dd-ae10-b2405bdf9ce8}, ! Handle
  0.9.3;                                  ! Version Identifier

OS:SizingPeriod:DesignDay,
  {76a31bde-7461-4032-9c5b-e6f76c62c208}, ! Handle
  Burlington Ann Clg 2% Condns WB=>MDB,   ! Name
  26,                                     ! Maximum Dry-Bulb Temperature {C}
  10.7,                                   ! Daily Dry-Bulb Temperature Range {deltaC}
  21.5,                                   ! Humidity Indicating Conditions at Maximum Dry-Bulb {BasedOnField A3}
  100082,                                 ! Barometric Pressure {Pa}
  4.5,                                    ! Wind Speed {m/s}
  170,                                    ! Wind Direction {deg}
  0,                                      ! Sky Clearness
  0,                                      ! Rain Indicator
  0,                                      ! Snow Indicator
  21,                                     ! Day of Month
  7,                                      ! Month
  SummerDesignDay,                        ! Day Type
  0,                                      ! Daylight Saving Time Indicator
  Wetbulb,                                ! Humidity Indicating Type
  ,                                       ! Humidity Indicating Day Schedule Name
  DefaultMultipliers,                     ! Dry-Bulb Temperature Range Modifier Type
  ,                                       ! Dry-Bulb Temperature Range Modifier Schedule Name
  ASHRAETau,                              ! Solar Model Indicator
  ,                                       ! Beam Solar Day Schedule Name
  ,                                       ! Diffuse Solar Day Schedule Name
  0.459,                                  ! ASHRAE Taub {dimensionless}
  2.002;                                  ! ASHRAE Taud {dimensionless}

OS:ComponentData,
  {7ce67940-b178-4085-98cb-fc49f745e9f2}, ! Handle
  Component Data 1,                       ! Name
  {5060d6ca-ac1e-485e-935b-36db1633e355}, ! UUID
  {a6ab4616-9960-4585-b0f6-1d476b230212}, ! Version UUID
  1366311241,                             ! Creation Timestamp
  1366311241,                             ! Version Timestamp
  {76a31bde-7461-4032-9c5b-e6f76c62c208}; ! Name of Object 1

