
OS:Version,
  {6f77a2e2-b954-4316-8099-60587dfa1417}, ! Handle
  0.9.3;                                  ! Version Identifier

OS:SizingPeriod:DesignDay,
  {a2a10920-88aa-4cae-963e-8d597a4ffc21}, ! Handle
  Lakeview  Awos Ann Clg .4% Condns DB=>MWB, ! Name
  32.2,                                   ! Maximum Dry-Bulb Temperature {C}
  18.9,                                   ! Daily Dry-Bulb Temperature Range {deltaC}
  14.9,                                   ! Humidity Indicating Conditions at Maximum Dry-Bulb {BasedOnField A3}
  85170,                                  ! Barometric Pressure {Pa}
  3.5,                                    ! Wind Speed {m/s}
  160,                                    ! Wind Direction {deg}
  0,                                      ! Sky Clearness
  0,                                      ! Rain Indicator
  0,                                      ! Snow Indicator
  21,                                     ! Day of Month
  7,                                      ! Month
  SummerDesignDay,                        ! Day Type
  0,                                      ! Daylight Saving Time Indicator
  Wetbulb,                                ! Humidity Indicating Type
  ,                                       ! Humidity Indicating Day Schedule Name
  DefaultMultipliers,                     ! Dry-Bulb Temperature Range Modifier Type
  ,                                       ! Dry-Bulb Temperature Range Modifier Schedule Name
  ASHRAETau,                              ! Solar Model Indicator
  ,                                       ! Beam Solar Day Schedule Name
  ,                                       ! Diffuse Solar Day Schedule Name
  0.355,                                  ! ASHRAE Taub {dimensionless}
  2.327;                                  ! ASHRAE Taud {dimensionless}

OS:ComponentData,
  {8be2f33d-de62-4cfd-9363-1aea9e07ccd0}, ! Handle
  Component Data 1,                       ! Name
  {d218398a-689d-4736-a9e9-235e928f2236}, ! UUID
  {141b1f87-199c-4ed3-b565-f3d1286a1b66}, ! Version UUID
  1366310026,                             ! Creation Timestamp
  1366310026,                             ! Version Timestamp
  {a2a10920-88aa-4cae-963e-8d597a4ffc21}; ! Name of Object 1

