
OS:Version,
  {cd56ea83-fc9d-4f63-9e72-b3aaa9f39d9e}, ! Handle
  0.9.3;                                  ! Version Identifier

OS:SizingPeriod:DesignDay,
  {ab78a0a5-9299-4630-bed1-cb57cc9b1ccc}, ! Handle
  Asheville Regional Arpt Ann Htg 99% Condns DB, ! Name
  -7.5,                                   ! Maximum Dry-Bulb Temperature {C}
  0,                                      ! Daily Dry-Bulb Temperature Range {deltaC}
  -7.5,                                   ! Humidity Indicating Conditions at Maximum Dry-Bulb {BasedOnField A3}
  93734,                                  ! Barometric Pressure {Pa}
  5.4,                                    ! Wind Speed {m/s}
  340,                                    ! Wind Direction {deg}
  0,                                      ! Sky Clearness
  0,                                      ! Rain Indicator
  0,                                      ! Snow Indicator
  21,                                     ! Day of Month
  1,                                      ! Month
  WinterDesignDay,                        ! Day Type
  0,                                      ! Daylight Saving Time Indicator
  Wetbulb,                                ! Humidity Indicating Type
  ,                                       ! Humidity Indicating Day Schedule Name
  DefaultMultipliers,                     ! Dry-Bulb Temperature Range Modifier Type
  ,                                       ! Dry-Bulb Temperature Range Modifier Schedule Name
  ASHRAEClearSky;                         ! Solar Model Indicator

OS:ComponentData,
  {d6f0ddd4-e8f2-4cbc-8cd2-b1dc9f675c8e}, ! Handle
  Component Data 1,                       ! Name
  {c6a10eaa-5a94-4ac4-a123-4da21b1cd051}, ! UUID
  {f84c4943-8d94-43e6-87e5-35c0d7892588}, ! Version UUID
  1366308868,                             ! Creation Timestamp
  1366308868,                             ! Version Timestamp
  {ab78a0a5-9299-4630-bed1-cb57cc9b1ccc}; ! Name of Object 1

