
OS:Version,
  {b2962ec0-5fd2-4e19-a0c7-77b3a29b3777}, ! Handle
  0.9.3;                                  ! Version Identifier

OS:SizingPeriod:DesignDay,
  {ae4d1461-b70f-49a5-95df-7b0212985dad}, ! Handle
  KOTZEBUE Ann Clg 2% Condns DP=>MDB,     ! Name
  15.2,                                   ! Maximum Dry-Bulb Temperature {C}
  4.9,                                    ! Daily Dry-Bulb Temperature Range {deltaC}
  12.2,                                   ! Humidity Indicating Conditions at Maximum Dry-Bulb {BasedOnField A3}
  101265,                                 ! Barometric Pressure {Pa}
  4.7,                                    ! Wind Speed {m/s}
  300,                                    ! Wind Direction {deg}
  0,                                      ! Sky Clearness
  0,                                      ! Rain Indicator
  0,                                      ! Snow Indicator
  21,                                     ! Day of Month
  7,                                      ! Month
  SummerDesignDay,                        ! Day Type
  0,                                      ! Daylight Saving Time Indicator
  Dewpoint,                               ! Humidity Indicating Type
  ,                                       ! Humidity Indicating Day Schedule Name
  DefaultMultipliers,                     ! Dry-Bulb Temperature Range Modifier Type
  ,                                       ! Dry-Bulb Temperature Range Modifier Schedule Name
  ASHRAETau,                              ! Solar Model Indicator
  ,                                       ! Beam Solar Day Schedule Name
  ,                                       ! Diffuse Solar Day Schedule Name
  0.374,                                  ! ASHRAE Taub {dimensionless}
  2.244;                                  ! ASHRAE Taud {dimensionless}

OS:ComponentData,
  {5e8695cb-b87b-49fe-a64b-d3de898d4734}, ! Handle
  Component Data 1,                       ! Name
  {5031a087-97cf-49fc-a8a1-15e8169b6682}, ! UUID
  {ad5f3542-31a5-46c0-b6ff-ab926752236b}, ! Version UUID
  1366305395,                             ! Creation Timestamp
  1366305395,                             ! Version Timestamp
  {ae4d1461-b70f-49a5-95df-7b0212985dad}; ! Name of Object 1

