
OS:Version,
  {56788d1b-a985-4818-8842-58dbb8f0d1b2}, ! Handle
  0.9.3;                                  ! Version Identifier

OS:SizingPeriod:DesignDay,
  {6b40f587-8dc3-4448-b0df-ba2e76a9e627}, ! Handle
  Charleston Yeager Arpt Ann Clg 1% Condns WB=>MDB, ! Name
  29,                                     ! Maximum Dry-Bulb Temperature {C}
  10.7,                                   ! Daily Dry-Bulb Temperature Range {deltaC}
  24.1,                                   ! Humidity Indicating Conditions at Maximum Dry-Bulb {BasedOnField A3}
  97656,                                  ! Barometric Pressure {Pa}
  2.9,                                    ! Wind Speed {m/s}
  240,                                    ! Wind Direction {deg}
  0,                                      ! Sky Clearness
  0,                                      ! Rain Indicator
  0,                                      ! Snow Indicator
  21,                                     ! Day of Month
  7,                                      ! Month
  SummerDesignDay,                        ! Day Type
  0,                                      ! Daylight Saving Time Indicator
  Wetbulb,                                ! Humidity Indicating Type
  ,                                       ! Humidity Indicating Day Schedule Name
  DefaultMultipliers,                     ! Dry-Bulb Temperature Range Modifier Type
  ,                                       ! Dry-Bulb Temperature Range Modifier Schedule Name
  ASHRAETau,                              ! Solar Model Indicator
  ,                                       ! Beam Solar Day Schedule Name
  ,                                       ! Diffuse Solar Day Schedule Name
  0.513,                                  ! ASHRAE Taub {dimensionless}
  1.859;                                  ! ASHRAE Taud {dimensionless}

OS:ComponentData,
  {4e7b011e-8e0d-4889-b10a-74eda8da9c24}, ! Handle
  Component Data 1,                       ! Name
  {270bce04-5938-4909-adcc-51d9a2649a78}, ! UUID
  {03cb5db2-fc70-425e-9cc8-5286e5547de0}, ! Version UUID
  1366311625,                             ! Creation Timestamp
  1366311625,                             ! Version Timestamp
  {6b40f587-8dc3-4448-b0df-ba2e76a9e627}; ! Name of Object 1

