
OS:Version,
  {c62efd1a-00ac-4ad8-b774-11be844ecdbd}, ! Handle
  0.9.3;                                  ! Version Identifier

OS:SizingPeriod:DesignDay,
  {9c6c6e76-5f13-4acb-9d30-4cff9f24f34c}, ! Handle
  Aurora Buckley Field Angb Ann Clg 2% Condns WB=>MDB, ! Name
  25.3,                                   ! Maximum Dry-Bulb Temperature {C}
  14.8,                                   ! Daily Dry-Bulb Temperature Range {deltaC}
  16.5,                                   ! Humidity Indicating Conditions at Maximum Dry-Bulb {BasedOnField A3}
  82237,                                  ! Barometric Pressure {Pa}
  3.6,                                    ! Wind Speed {m/s}
  30,                                     ! Wind Direction {deg}
  0,                                      ! Sky Clearness
  0,                                      ! Rain Indicator
  0,                                      ! Snow Indicator
  21,                                     ! Day of Month
  7,                                      ! Month
  SummerDesignDay,                        ! Day Type
  0,                                      ! Daylight Saving Time Indicator
  Wetbulb,                                ! Humidity Indicating Type
  ,                                       ! Humidity Indicating Day Schedule Name
  DefaultMultipliers,                     ! Dry-Bulb Temperature Range Modifier Type
  ,                                       ! Dry-Bulb Temperature Range Modifier Schedule Name
  ASHRAETau,                              ! Solar Model Indicator
  ,                                       ! Beam Solar Day Schedule Name
  ,                                       ! Diffuse Solar Day Schedule Name
  0.423,                                  ! ASHRAE Taub {dimensionless}
  2.02;                                   ! ASHRAE Taud {dimensionless}

OS:ComponentData,
  {6e7097e9-0b55-4fd8-9592-74d8ae0dadd7}, ! Handle
  Component Data 1,                       ! Name
  {0ad4dfd9-7afd-4f5f-8af5-c99e77239f1f}, ! UUID
  {ccf1818e-3dee-44e1-854e-fb14512ee369}, ! Version UUID
  1366306653,                             ! Creation Timestamp
  1366306653,                             ! Version Timestamp
  {9c6c6e76-5f13-4acb-9d30-4cff9f24f34c}; ! Name of Object 1

