
OS:Version,
  {9a1792f7-aac3-479f-ab9e-86bacfadcc57}, ! Handle
  0.9.3;                                  ! Version Identifier

OS:SizingPeriod:DesignDay,
  {13ce0a08-7faf-4812-9564-0e5e608d59a8}, ! Handle
  Grand Canyon Natl P Ann Clg .4% Condns WB=>MDB, ! Name
  23.6,                                   ! Maximum Dry-Bulb Temperature {C}
  19.6,                                   ! Daily Dry-Bulb Temperature Range {deltaC}
  16.8,                                   ! Humidity Indicating Conditions at Maximum Dry-Bulb {BasedOnField A3}
  78856,                                  ! Barometric Pressure {Pa}
  4.6,                                    ! Wind Speed {m/s}
  230,                                    ! Wind Direction {deg}
  0,                                      ! Sky Clearness
  0,                                      ! Rain Indicator
  0,                                      ! Snow Indicator
  21,                                     ! Day of Month
  7,                                      ! Month
  SummerDesignDay,                        ! Day Type
  0,                                      ! Daylight Saving Time Indicator
  Wetbulb,                                ! Humidity Indicating Type
  ,                                       ! Humidity Indicating Day Schedule Name
  DefaultMultipliers,                     ! Dry-Bulb Temperature Range Modifier Type
  ,                                       ! Dry-Bulb Temperature Range Modifier Schedule Name
  ASHRAETau,                              ! Solar Model Indicator
  ,                                       ! Beam Solar Day Schedule Name
  ,                                       ! Diffuse Solar Day Schedule Name
  0.378,                                  ! ASHRAE Taub {dimensionless}
  2.158;                                  ! ASHRAE Taud {dimensionless}

OS:ComponentData,
  {3e0b5ced-3e5f-4a00-b0d7-fff18726082a}, ! Handle
  Component Data 1,                       ! Name
  {15311bcf-227e-4240-85c8-bfd5d930ad1b}, ! UUID
  {de31ec2b-b4b3-431b-89bc-0af5bde9fa04}, ! Version UUID
  1366306278,                             ! Creation Timestamp
  1366306278,                             ! Version Timestamp
  {13ce0a08-7faf-4812-9564-0e5e608d59a8}; ! Name of Object 1

