
OS:Version,
  {ae4ee9ce-3a28-4569-8ae7-c52666a2a2f1}, ! Handle
  0.9.3;                                  ! Version Identifier

OS:SizingPeriod:DesignDay,
  {57317da1-b97c-40c5-85df-34531a9e2d7d}, ! Handle
  Fayetteville Drake Field Ann Clg 1% Condns DB=>MWB, ! Name
  33.7,                                   ! Maximum Dry-Bulb Temperature {C}
  11.8,                                   ! Daily Dry-Bulb Temperature Range {deltaC}
  23.8,                                   ! Humidity Indicating Conditions at Maximum Dry-Bulb {BasedOnField A3}
  96831,                                  ! Barometric Pressure {Pa}
  4.3,                                    ! Wind Speed {m/s}
  190,                                    ! Wind Direction {deg}
  0,                                      ! Sky Clearness
  0,                                      ! Rain Indicator
  0,                                      ! Snow Indicator
  21,                                     ! Day of Month
  7,                                      ! Month
  SummerDesignDay,                        ! Day Type
  0,                                      ! Daylight Saving Time Indicator
  Wetbulb,                                ! Humidity Indicating Type
  ,                                       ! Humidity Indicating Day Schedule Name
  DefaultMultipliers,                     ! Dry-Bulb Temperature Range Modifier Type
  ,                                       ! Dry-Bulb Temperature Range Modifier Schedule Name
  ASHRAETau,                              ! Solar Model Indicator
  ,                                       ! Beam Solar Day Schedule Name
  ,                                       ! Diffuse Solar Day Schedule Name
  0.462,                                  ! ASHRAE Taub {dimensionless}
  2.054;                                  ! ASHRAE Taud {dimensionless}

OS:ComponentData,
  {5c5a6e06-cd03-4e5b-a5eb-ee29343c9bf1}, ! Handle
  Component Data 1,                       ! Name
  {9d55f3a1-174c-48b7-b9af-4ca5640a48b7}, ! UUID
  {99bd9a2f-520d-4644-a041-bc9a295499e7}, ! Version UUID
  1366306200,                             ! Creation Timestamp
  1366306200,                             ! Version Timestamp
  {57317da1-b97c-40c5-85df-34531a9e2d7d}; ! Name of Object 1

