
OS:Version,
  {9816c546-b82b-44ff-bbf6-a8ee421222c6}, ! Handle
  0.9.3;                                  ! Version Identifier

OS:SizingPeriod:DesignDay,
  {3ba271a2-b943-4d79-a036-6aac899ad286}, ! Handle
  Cut Bank Muni Ap Ann Clg 2% Condns DB=>MWB, ! Name
  27.5,                                   ! Maximum Dry-Bulb Temperature {C}
  15.1,                                   ! Daily Dry-Bulb Temperature Range {deltaC}
  14.3,                                   ! Humidity Indicating Conditions at Maximum Dry-Bulb {BasedOnField A3}
  88037,                                  ! Barometric Pressure {Pa}
  5.8,                                    ! Wind Speed {m/s}
  260,                                    ! Wind Direction {deg}
  0,                                      ! Sky Clearness
  0,                                      ! Rain Indicator
  0,                                      ! Snow Indicator
  21,                                     ! Day of Month
  7,                                      ! Month
  SummerDesignDay,                        ! Day Type
  0,                                      ! Daylight Saving Time Indicator
  Wetbulb,                                ! Humidity Indicating Type
  ,                                       ! Humidity Indicating Day Schedule Name
  DefaultMultipliers,                     ! Dry-Bulb Temperature Range Modifier Type
  ,                                       ! Dry-Bulb Temperature Range Modifier Schedule Name
  ASHRAETau,                              ! Solar Model Indicator
  ,                                       ! Beam Solar Day Schedule Name
  ,                                       ! Diffuse Solar Day Schedule Name
  0.368,                                  ! ASHRAE Taub {dimensionless}
  2.249;                                  ! ASHRAE Taud {dimensionless}

OS:ComponentData,
  {fc42417f-b189-48a7-bd3e-816bb635074e}, ! Handle
  Component Data 1,                       ! Name
  {c50e275e-d1fd-4996-b42f-8f76ac559d6e}, ! UUID
  {b605e433-ba5d-4989-aae2-8a3767065419}, ! Version UUID
  1366308745,                             ! Creation Timestamp
  1366308745,                             ! Version Timestamp
  {3ba271a2-b943-4d79-a036-6aac899ad286}; ! Name of Object 1

