
OS:Version,
  {60647132-74be-4a7e-ad66-cbbbfe465803}, ! Handle
  0.9.3;                                  ! Version Identifier

OS:SizingPeriod:DesignDay,
  {ab6ff188-b80f-4250-8eb0-6e69e447af17}, ! Handle
  Brunswick Malcolm Mckinnon Ap Ann Clg .4% Condns WB=>MDB, ! Name
  31.2,                                   ! Maximum Dry-Bulb Temperature {C}
  7.7,                                    ! Daily Dry-Bulb Temperature Range {deltaC}
  26.9,                                   ! Humidity Indicating Conditions at Maximum Dry-Bulb {BasedOnField A3}
  101277,                                 ! Barometric Pressure {Pa}
  4.5,                                    ! Wind Speed {m/s}
  250,                                    ! Wind Direction {deg}
  0,                                      ! Sky Clearness
  0,                                      ! Rain Indicator
  0,                                      ! Snow Indicator
  21,                                     ! Day of Month
  7,                                      ! Month
  SummerDesignDay,                        ! Day Type
  0,                                      ! Daylight Saving Time Indicator
  Wetbulb,                                ! Humidity Indicating Type
  ,                                       ! Humidity Indicating Day Schedule Name
  DefaultMultipliers,                     ! Dry-Bulb Temperature Range Modifier Type
  ,                                       ! Dry-Bulb Temperature Range Modifier Schedule Name
  ASHRAETau,                              ! Solar Model Indicator
  ,                                       ! Beam Solar Day Schedule Name
  ,                                       ! Diffuse Solar Day Schedule Name
  0.564,                                  ! ASHRAE Taub {dimensionless}
  1.805;                                  ! ASHRAE Taud {dimensionless}

OS:ComponentData,
  {04d7f5bb-aa81-4a78-a965-28440a90ba38}, ! Handle
  Component Data 1,                       ! Name
  {e83247b8-0a73-4ebe-a314-b5f1f0c118e7}, ! UUID
  {e97f6a59-b882-4391-8464-abcb613db340}, ! Version UUID
  1366306997,                             ! Creation Timestamp
  1366306997,                             ! Version Timestamp
  {ab6ff188-b80f-4250-8eb0-6e69e447af17}; ! Name of Object 1

