
OS:Version,
  {514ed60b-83c0-495b-9373-1759b718638b}, ! Handle
  0.9.3;                                  ! Version Identifier

OS:SizingPeriod:DesignDay,
  {aa7024c2-53bc-4211-b03c-7a38347029c0}, ! Handle
  Albany Dougherty County Ap Ann Clg .4% Condns DP=>MDB, ! Name
  28.5,                                   ! Maximum Dry-Bulb Temperature {C}
  10.7,                                   ! Daily Dry-Bulb Temperature Range {deltaC}
  25.1,                                   ! Humidity Indicating Conditions at Maximum Dry-Bulb {BasedOnField A3}
  100630,                                 ! Barometric Pressure {Pa}
  3.6,                                    ! Wind Speed {m/s}
  240,                                    ! Wind Direction {deg}
  0,                                      ! Sky Clearness
  0,                                      ! Rain Indicator
  0,                                      ! Snow Indicator
  21,                                     ! Day of Month
  7,                                      ! Month
  SummerDesignDay,                        ! Day Type
  0,                                      ! Daylight Saving Time Indicator
  Dewpoint,                               ! Humidity Indicating Type
  ,                                       ! Humidity Indicating Day Schedule Name
  DefaultMultipliers,                     ! Dry-Bulb Temperature Range Modifier Type
  ,                                       ! Dry-Bulb Temperature Range Modifier Schedule Name
  ASHRAETau,                              ! Solar Model Indicator
  ,                                       ! Beam Solar Day Schedule Name
  ,                                       ! Diffuse Solar Day Schedule Name
  0.547,                                  ! ASHRAE Taub {dimensionless}
  1.824;                                  ! ASHRAE Taud {dimensionless}

OS:ComponentData,
  {6e84e635-c74e-40c6-a15c-b9e7318b999a}, ! Handle
  Component Data 1,                       ! Name
  {acb6aa96-cedd-4194-80a9-c5897b890592}, ! UUID
  {758db084-e685-4a4b-afa8-dd71f2ae55bf}, ! Version UUID
  1366306962,                             ! Creation Timestamp
  1366306962,                             ! Version Timestamp
  {aa7024c2-53bc-4211-b03c-7a38347029c0}; ! Name of Object 1

