
OS:Version,
  {03c08fba-15ac-44ea-85a8-ef42ee98b790}, ! Handle
  0.9.3;                                  ! Version Identifier

OS:SizingPeriod:DesignDay,
  {f9755f82-e0c1-4222-a08c-2743575a7b35}, ! Handle
  ANCHORAGE Ann Clg 2% Condns Enth=>MDB,  ! Name
  17.7,                                   ! Maximum Dry-Bulb Temperature {C}
  6.6,                                    ! Daily Dry-Bulb Temperature Range {deltaC}
  39500,                                  ! Humidity Indicating Conditions at Maximum Dry-Bulb {BasedOnField A3}
  100905,                                 ! Barometric Pressure {Pa}
  3.6,                                    ! Wind Speed {m/s}
  300,                                    ! Wind Direction {deg}
  0,                                      ! Sky Clearness
  0,                                      ! Rain Indicator
  0,                                      ! Snow Indicator
  21,                                     ! Day of Month
  7,                                      ! Month
  SummerDesignDay,                        ! Day Type
  0,                                      ! Daylight Saving Time Indicator
  Enthalpy,                               ! Humidity Indicating Type
  ,                                       ! Humidity Indicating Day Schedule Name
  DefaultMultipliers,                     ! Dry-Bulb Temperature Range Modifier Type
  ,                                       ! Dry-Bulb Temperature Range Modifier Schedule Name
  ASHRAETau,                              ! Solar Model Indicator
  ,                                       ! Beam Solar Day Schedule Name
  ,                                       ! Diffuse Solar Day Schedule Name
  0.387,                                  ! ASHRAE Taub {dimensionless}
  2.172;                                  ! ASHRAE Taud {dimensionless}

OS:ComponentData,
  {ae7a7e8f-8729-4b1d-9001-d1b2dd625c2c}, ! Handle
  Component Data 1,                       ! Name
  {ec8f8777-c9bd-48df-a7bb-1a410d57ecb5}, ! UUID
  {fff95fa5-c68e-4fb8-9bab-acf62bf97f99}, ! Version UUID
  1366304706,                             ! Creation Timestamp
  1366304706,                             ! Version Timestamp
  {f9755f82-e0c1-4222-a08c-2743575a7b35}; ! Name of Object 1

