
OS:Version,
  {ea06ecde-80d4-49fa-8c71-abaf200c91c9}, ! Handle
  0.9.3;                                  ! Version Identifier

OS:SizingPeriod:DesignDay,
  {4d0f370b-c9fb-4dfb-8565-0f69ebd34346}, ! Handle
  AUGUSTA Ann Clg .4% Condns Enth=>MDB,   ! Name
  32.8,                                   ! Maximum Dry-Bulb Temperature {C}
  11.7,                                   ! Daily Dry-Bulb Temperature Range {deltaC}
  81700,                                  ! Humidity Indicating Conditions at Maximum Dry-Bulb {BasedOnField A3}
  100786,                                 ! Barometric Pressure {Pa}
  3.8,                                    ! Wind Speed {m/s}
  240,                                    ! Wind Direction {deg}
  0,                                      ! Sky Clearness
  0,                                      ! Rain Indicator
  0,                                      ! Snow Indicator
  21,                                     ! Day of Month
  7,                                      ! Month
  SummerDesignDay,                        ! Day Type
  0,                                      ! Daylight Saving Time Indicator
  Enthalpy,                               ! Humidity Indicating Type
  ,                                       ! Humidity Indicating Day Schedule Name
  DefaultMultipliers,                     ! Dry-Bulb Temperature Range Modifier Type
  ,                                       ! Dry-Bulb Temperature Range Modifier Schedule Name
  ASHRAETau,                              ! Solar Model Indicator
  ,                                       ! Beam Solar Day Schedule Name
  ,                                       ! Diffuse Solar Day Schedule Name
  0.559,                                  ! ASHRAE Taub {dimensionless}
  1.788;                                  ! ASHRAE Taud {dimensionless}

OS:ComponentData,
  {38d8efdc-05b6-432c-bcf9-15ddb6128582}, ! Handle
  Component Data 1,                       ! Name
  {4ae867a9-4ce5-42c5-817a-6561de0951fb}, ! UUID
  {2c552c6d-1fe7-48a7-99d9-3fbab91e74c3}, ! Version UUID
  1366306993,                             ! Creation Timestamp
  1366306993,                             ! Version Timestamp
  {4d0f370b-c9fb-4dfb-8565-0f69ebd34346}; ! Name of Object 1

