
OS:Version,
  {b1037c36-24d5-4cca-8526-a0ee6735069e}, ! Handle
  0.9.3;                                  ! Version Identifier

OS:SizingPeriod:DesignDay,
  {7fe110ad-c8b7-418e-b1dd-34e6f77e94e5}, ! Handle
  Boise Air Terminal  Uo Ann Clg 1% Condns DP=>MDB, ! Name
  22.4,                                   ! Maximum Dry-Bulb Temperature {C}
  16.7,                                   ! Daily Dry-Bulb Temperature Range {deltaC}
  13,                                     ! Humidity Indicating Conditions at Maximum Dry-Bulb {BasedOnField A3}
  93182,                                  ! Barometric Pressure {Pa}
  4.2,                                    ! Wind Speed {m/s}
  330,                                    ! Wind Direction {deg}
  0,                                      ! Sky Clearness
  0,                                      ! Rain Indicator
  0,                                      ! Snow Indicator
  21,                                     ! Day of Month
  7,                                      ! Month
  SummerDesignDay,                        ! Day Type
  0,                                      ! Daylight Saving Time Indicator
  Dewpoint,                               ! Humidity Indicating Type
  ,                                       ! Humidity Indicating Day Schedule Name
  DefaultMultipliers,                     ! Dry-Bulb Temperature Range Modifier Type
  ,                                       ! Dry-Bulb Temperature Range Modifier Schedule Name
  ASHRAETau,                              ! Solar Model Indicator
  ,                                       ! Beam Solar Day Schedule Name
  ,                                       ! Diffuse Solar Day Schedule Name
  0.398,                                  ! ASHRAE Taub {dimensionless}
  2.125;                                  ! ASHRAE Taud {dimensionless}

OS:ComponentData,
  {05fc65b3-22a0-4392-8286-78bb9aee5723}, ! Handle
  Component Data 1,                       ! Name
  {c1f2770a-3e65-4b02-adbc-af0886d463f2}, ! UUID
  {9ae51a45-d1b4-4f6c-addd-495e58e0601a}, ! Version UUID
  1366307271,                             ! Creation Timestamp
  1366307271,                             ! Version Timestamp
  {7fe110ad-c8b7-418e-b1dd-34e6f77e94e5}; ! Name of Object 1

