
OS:Version,
  {14e14f1a-07a9-48c3-a5b0-844f26a690bd}, ! Handle
  0.9.3;                                  ! Version Identifier

OS:SizingPeriod:DesignDay,
  {935f8bf3-3fc3-42ba-9628-80a4edf8479f}, ! Handle
  DAYTONA_BEACH Ann Htg Wind 99.6% Condns WS=>MCDB, ! Name
  15.5,                                   ! Maximum Dry-Bulb Temperature {C}
  0,                                      ! Daily Dry-Bulb Temperature Range {deltaC}
  15.5,                                   ! Humidity Indicating Conditions at Maximum Dry-Bulb {BasedOnField A3}
  101181,                                 ! Barometric Pressure {Pa}
  11,                                     ! Wind Speed {m/s}
  310,                                    ! Wind Direction {deg}
  0,                                      ! Sky Clearness
  0,                                      ! Rain Indicator
  0,                                      ! Snow Indicator
  21,                                     ! Day of Month
  1,                                      ! Month
  WinterDesignDay,                        ! Day Type
  0,                                      ! Daylight Saving Time Indicator
  Wetbulb,                                ! Humidity Indicating Type
  ,                                       ! Humidity Indicating Day Schedule Name
  DefaultMultipliers,                     ! Dry-Bulb Temperature Range Modifier Type
  ,                                       ! Dry-Bulb Temperature Range Modifier Schedule Name
  ASHRAEClearSky;                         ! Solar Model Indicator

OS:ComponentData,
  {3542c55c-1a8b-432a-8ebf-d56ae54c5ffc}, ! Handle
  Component Data 1,                       ! Name
  {0db2eef8-d8bb-4c0e-b911-f5cac9c2459a}, ! UUID
  {8a7a4402-b237-4676-95f3-28e91d6c9141}, ! Version UUID
  1366306786,                             ! Creation Timestamp
  1366306786,                             ! Version Timestamp
  {935f8bf3-3fc3-42ba-9628-80a4edf8479f}; ! Name of Object 1

