
OS:Version,
  {6e5138d5-3b51-4f6f-acca-fb5337324d09}, ! Handle
  0.9.3;                                  ! Version Identifier

OS:SizingPeriod:DesignDay,
  {448e5f04-49f4-41f5-ab98-60e55b784a65}, ! Handle
  Garden City Municipal Ap Ann Clg .4% Condns DP=>MDB, ! Name
  26.5,                                   ! Maximum Dry-Bulb Temperature {C}
  14.7,                                   ! Daily Dry-Bulb Temperature Range {deltaC}
  20.9,                                   ! Humidity Indicating Conditions at Maximum Dry-Bulb {BasedOnField A3}
  91212,                                  ! Barometric Pressure {Pa}
  7.3,                                    ! Wind Speed {m/s}
  180,                                    ! Wind Direction {deg}
  0,                                      ! Sky Clearness
  0,                                      ! Rain Indicator
  0,                                      ! Snow Indicator
  21,                                     ! Day of Month
  7,                                      ! Month
  SummerDesignDay,                        ! Day Type
  0,                                      ! Daylight Saving Time Indicator
  Dewpoint,                               ! Humidity Indicating Type
  ,                                       ! Humidity Indicating Day Schedule Name
  DefaultMultipliers,                     ! Dry-Bulb Temperature Range Modifier Type
  ,                                       ! Dry-Bulb Temperature Range Modifier Schedule Name
  ASHRAETau,                              ! Solar Model Indicator
  ,                                       ! Beam Solar Day Schedule Name
  ,                                       ! Diffuse Solar Day Schedule Name
  0.422,                                  ! ASHRAE Taub {dimensionless}
  2.104;                                  ! ASHRAE Taud {dimensionless}

OS:ComponentData,
  {c6b55670-80e1-42db-a327-e480ff2be829}, ! Handle
  Component Data 1,                       ! Name
  {b451f71d-28e3-4d87-96c0-3133838870e7}, ! UUID
  {7ddb191e-cd98-429e-b96e-1f08d1ee3314}, ! Version UUID
  1366307527,                             ! Creation Timestamp
  1366307527,                             ! Version Timestamp
  {448e5f04-49f4-41f5-ab98-60e55b784a65}; ! Name of Object 1

