
OS:Version,
  {16d72eed-dd6c-4f34-9278-e0c29ab5a329}, ! Handle
  0.9.3;                                  ! Version Identifier

OS:SizingPeriod:DesignDay,
  {b7de3540-2f27-4b09-b0fb-2388bd7f316b}, ! Handle
  Barrow W Post W Rogers Arpt Ann Clg 2% Condns Enth=>MDB, ! Name
  9.8,                                    ! Maximum Dry-Bulb Temperature {C}
  6.3,                                    ! Daily Dry-Bulb Temperature Range {deltaC}
  25600,                                  ! Humidity Indicating Conditions at Maximum Dry-Bulb {BasedOnField A3}
  101205,                                 ! Barometric Pressure {Pa}
  5.2,                                    ! Wind Speed {m/s}
  180,                                    ! Wind Direction {deg}
  0,                                      ! Sky Clearness
  0,                                      ! Rain Indicator
  0,                                      ! Snow Indicator
  21,                                     ! Day of Month
  7,                                      ! Month
  SummerDesignDay,                        ! Day Type
  0,                                      ! Daylight Saving Time Indicator
  Enthalpy,                               ! Humidity Indicating Type
  ,                                       ! Humidity Indicating Day Schedule Name
  DefaultMultipliers,                     ! Dry-Bulb Temperature Range Modifier Type
  ,                                       ! Dry-Bulb Temperature Range Modifier Schedule Name
  ASHRAETau,                              ! Solar Model Indicator
  ,                                       ! Beam Solar Day Schedule Name
  ,                                       ! Diffuse Solar Day Schedule Name
  0.344,                                  ! ASHRAE Taub {dimensionless}
  2.25;                                   ! ASHRAE Taud {dimensionless}

OS:ComponentData,
  {f74f6ff0-6c4c-4fad-be76-1633a9910a8c}, ! Handle
  Component Data 1,                       ! Name
  {896aec33-93fb-46e0-90aa-dcf0d6315c80}, ! UUID
  {90187dde-15e2-492b-86ab-02956b164ff8}, ! Version UUID
  1366304738,                             ! Creation Timestamp
  1366304738,                             ! Version Timestamp
  {b7de3540-2f27-4b09-b0fb-2388bd7f316b}; ! Name of Object 1

