
OS:Version,
  {1d68ca9f-5814-4425-abca-4e501da29c1b}, ! Handle
  0.9.3;                                  ! Version Identifier

OS:SizingPeriod:DesignDay,
  {3ab25311-2e3c-4b0c-afac-3c099a33a26a}, ! Handle
  Chicago Ohare Intl Ap Ann Clg .4% Condns DB=>MWB, ! Name
  33.3,                                   ! Maximum Dry-Bulb Temperature {C}
  10.5,                                   ! Daily Dry-Bulb Temperature Range {deltaC}
  23.7,                                   ! Humidity Indicating Conditions at Maximum Dry-Bulb {BasedOnField A3}
  98934,                                  ! Barometric Pressure {Pa}
  5.2,                                    ! Wind Speed {m/s}
  230,                                    ! Wind Direction {deg}
  0,                                      ! Sky Clearness
  0,                                      ! Rain Indicator
  0,                                      ! Snow Indicator
  21,                                     ! Day of Month
  7,                                      ! Month
  SummerDesignDay,                        ! Day Type
  0,                                      ! Daylight Saving Time Indicator
  Wetbulb,                                ! Humidity Indicating Type
  ,                                       ! Humidity Indicating Day Schedule Name
  DefaultMultipliers,                     ! Dry-Bulb Temperature Range Modifier Type
  ,                                       ! Dry-Bulb Temperature Range Modifier Schedule Name
  ASHRAETau,                              ! Solar Model Indicator
  ,                                       ! Beam Solar Day Schedule Name
  ,                                       ! Diffuse Solar Day Schedule Name
  0.455,                                  ! ASHRAE Taub {dimensionless}
  2.05;                                   ! ASHRAE Taud {dimensionless}

OS:ComponentData,
  {f44f094f-1f50-45b1-85c0-489eb00f0a84}, ! Handle
  Component Data 1,                       ! Name
  {ac6ef58e-4e84-49d4-8372-379be62a0271}, ! UUID
  {31c13a5c-59af-4d0f-8fbd-90f59579e0f3}, ! Version UUID
  1366307350,                             ! Creation Timestamp
  1366307350,                             ! Version Timestamp
  {3ab25311-2e3c-4b0c-afac-3c099a33a26a}; ! Name of Object 1

