
OS:Version,
  {9c78ca89-5a9d-40be-a51f-f26ac2567959}, ! Handle
  0.9.3;                                  ! Version Identifier

OS:SizingPeriod:DesignDay,
  {620e102b-f3c3-4648-8e14-3efeb5aadbd1}, ! Handle
  HOUGHTON Ann Htg 99.6% Condns DB,       ! Name
  -20.8,                                  ! Maximum Dry-Bulb Temperature {C}
  0,                                      ! Daily Dry-Bulb Temperature Range {deltaC}
  -20.8,                                  ! Humidity Indicating Conditions at Maximum Dry-Bulb {BasedOnField A3}
  97435,                                  ! Barometric Pressure {Pa}
  4.3,                                    ! Wind Speed {m/s}
  310,                                    ! Wind Direction {deg}
  0,                                      ! Sky Clearness
  0,                                      ! Rain Indicator
  0,                                      ! Snow Indicator
  21,                                     ! Day of Month
  1,                                      ! Month
  WinterDesignDay,                        ! Day Type
  0,                                      ! Daylight Saving Time Indicator
  Wetbulb,                                ! Humidity Indicating Type
  ,                                       ! Humidity Indicating Day Schedule Name
  DefaultMultipliers,                     ! Dry-Bulb Temperature Range Modifier Type
  ,                                       ! Dry-Bulb Temperature Range Modifier Schedule Name
  ASHRAEClearSky;                         ! Solar Model Indicator

OS:ComponentData,
  {24779b1e-3481-4962-8399-fc6fca28c9aa}, ! Handle
  Component Data 1,                       ! Name
  {8f0f6210-7460-4553-864e-ca3a33967164}, ! UUID
  {afc7fa9b-3f64-4131-a3d0-620571552843}, ! Version UUID
  1366308029,                             ! Creation Timestamp
  1366308029,                             ! Version Timestamp
  {620e102b-f3c3-4648-8e14-3efeb5aadbd1}; ! Name of Object 1

