
OS:Version,
  {ee90f589-0481-457e-be44-698c49bb2ff3}, ! Handle
  0.9.3;                                  ! Version Identifier

OS:SizingPeriod:DesignDay,
  {64c5ef4a-9083-455c-a49c-abdd4342dbce}, ! Handle
  Ainsworth Municipal Ann Clg 1% Condns Enth=>MDB, ! Name
  29.1,                                   ! Maximum Dry-Bulb Temperature {C}
  13.2,                                   ! Daily Dry-Bulb Temperature Range {deltaC}
  70700,                                  ! Humidity Indicating Conditions at Maximum Dry-Bulb {BasedOnField A3}
  92199,                                  ! Barometric Pressure {Pa}
  6.3,                                    ! Wind Speed {m/s}
  200,                                    ! Wind Direction {deg}
  0,                                      ! Sky Clearness
  0,                                      ! Rain Indicator
  0,                                      ! Snow Indicator
  21,                                     ! Day of Month
  7,                                      ! Month
  SummerDesignDay,                        ! Day Type
  0,                                      ! Daylight Saving Time Indicator
  Enthalpy,                               ! Humidity Indicating Type
  ,                                       ! Humidity Indicating Day Schedule Name
  DefaultMultipliers,                     ! Dry-Bulb Temperature Range Modifier Type
  ,                                       ! Dry-Bulb Temperature Range Modifier Schedule Name
  ASHRAETau,                              ! Solar Model Indicator
  ,                                       ! Beam Solar Day Schedule Name
  ,                                       ! Diffuse Solar Day Schedule Name
  0.406,                                  ! ASHRAE Taub {dimensionless}
  2.174;                                  ! ASHRAE Taud {dimensionless}

OS:ComponentData,
  {a6811ec5-a5d0-4599-b2a6-c7bc59ed3218}, ! Handle
  Component Data 1,                       ! Name
  {482ebdb4-3b20-470a-8d59-0d7eea556fef}, ! UUID
  {071e0906-4093-448c-bd41-2d0e4098bf8c}, ! Version UUID
  1366309079,                             ! Creation Timestamp
  1366309079,                             ! Version Timestamp
  {64c5ef4a-9083-455c-a49c-abdd4342dbce}; ! Name of Object 1

