
OS:Version,
  {03496705-5dfe-4e11-ae6b-535ef0a1d9af}, ! Handle
  0.9.3;                                  ! Version Identifier

OS:SizingPeriod:DesignDay,
  {2064a4b6-8be4-4383-9b8a-f2b9bc28af3b}, ! Handle
  Key West Nas Ann Hum_n 99.6% Condns DP=>MCDB, ! Name
  14.5,                                   ! Maximum Dry-Bulb Temperature {C}
  0,                                      ! Daily Dry-Bulb Temperature Range {deltaC}
  4.1,                                    ! Humidity Indicating Conditions at Maximum Dry-Bulb {BasedOnField A3}
  101241,                                 ! Barometric Pressure {Pa}
  4.5,                                    ! Wind Speed {m/s}
  20,                                     ! Wind Direction {deg}
  0,                                      ! Sky Clearness
  0,                                      ! Rain Indicator
  0,                                      ! Snow Indicator
  21,                                     ! Day of Month
  1,                                      ! Month
  WinterDesignDay,                        ! Day Type
  0,                                      ! Daylight Saving Time Indicator
  Dewpoint,                               ! Humidity Indicating Type
  ,                                       ! Humidity Indicating Day Schedule Name
  DefaultMultipliers,                     ! Dry-Bulb Temperature Range Modifier Type
  ,                                       ! Dry-Bulb Temperature Range Modifier Schedule Name
  ASHRAEClearSky;                         ! Solar Model Indicator

OS:ComponentData,
  {e338d549-d4c1-4895-be70-236f5b4df889}, ! Handle
  Component Data 1,                       ! Name
  {32bd7724-ecc4-4bf5-af80-1b9bf2467a1e}, ! UUID
  {2f246cfa-3588-43dd-be5d-c5ad1d381adf}, ! Version UUID
  1366306839,                             ! Creation Timestamp
  1366306839,                             ! Version Timestamp
  {2064a4b6-8be4-4383-9b8a-f2b9bc28af3b}; ! Name of Object 1

