
OS:Version,
  {fbba5211-57a6-4699-9564-03a0e14f8319}, ! Handle
  0.9.3;                                  ! Version Identifier

OS:SizingPeriod:DesignDay,
  {f0104a09-3c12-49af-b755-145a680651b3}, ! Handle
  Lufkin Angelina Co Ann Htg Wind 99.6% Condns WS=>MCDB, ! Name
  13.4,                                   ! Maximum Dry-Bulb Temperature {C}
  0,                                      ! Daily Dry-Bulb Temperature Range {deltaC}
  13.4,                                   ! Humidity Indicating Conditions at Maximum Dry-Bulb {BasedOnField A3}
  100296,                                 ! Barometric Pressure {Pa}
  8.9,                                    ! Wind Speed {m/s}
  340,                                    ! Wind Direction {deg}
  0,                                      ! Sky Clearness
  0,                                      ! Rain Indicator
  0,                                      ! Snow Indicator
  21,                                     ! Day of Month
  1,                                      ! Month
  WinterDesignDay,                        ! Day Type
  0,                                      ! Daylight Saving Time Indicator
  Wetbulb,                                ! Humidity Indicating Type
  ,                                       ! Humidity Indicating Day Schedule Name
  DefaultMultipliers,                     ! Dry-Bulb Temperature Range Modifier Type
  ,                                       ! Dry-Bulb Temperature Range Modifier Schedule Name
  ASHRAEClearSky;                         ! Solar Model Indicator

OS:ComponentData,
  {2ea4354d-4507-46ba-8ce0-2b0e4798cbfd}, ! Handle
  Component Data 1,                       ! Name
  {da9c2180-828f-4ea6-9394-8d4c1e7cd97e}, ! UUID
  {5ec26ca7-b848-42d6-8949-6525afa2dd57}, ! Version UUID
  1366310806,                             ! Creation Timestamp
  1366310806,                             ! Version Timestamp
  {f0104a09-3c12-49af-b755-145a680651b3}; ! Name of Object 1

