
OS:Version,
  {294607d9-ecd2-454c-9a67-0219a2e4e876}, ! Handle
  0.9.3;                                  ! Version Identifier

OS:SizingPeriod:DesignDay,
  {64f19233-a924-4cd2-a2b9-5e6423cfa004}, ! Handle
  Hondo Municipal Ap Ann Clg 2% Condns WB=>MDB, ! Name
  30.6,                                   ! Maximum Dry-Bulb Temperature {C}
  12.4,                                   ! Daily Dry-Bulb Temperature Range {deltaC}
  24.8,                                   ! Humidity Indicating Conditions at Maximum Dry-Bulb {BasedOnField A3}
  98006,                                  ! Barometric Pressure {Pa}
  4.7,                                    ! Wind Speed {m/s}
  140,                                    ! Wind Direction {deg}
  0,                                      ! Sky Clearness
  0,                                      ! Rain Indicator
  0,                                      ! Snow Indicator
  21,                                     ! Day of Month
  8,                                      ! Month
  SummerDesignDay,                        ! Day Type
  0,                                      ! Daylight Saving Time Indicator
  Wetbulb,                                ! Humidity Indicating Type
  ,                                       ! Humidity Indicating Day Schedule Name
  DefaultMultipliers,                     ! Dry-Bulb Temperature Range Modifier Type
  ,                                       ! Dry-Bulb Temperature Range Modifier Schedule Name
  ASHRAETau,                              ! Solar Model Indicator
  ,                                       ! Beam Solar Day Schedule Name
  ,                                       ! Diffuse Solar Day Schedule Name
  0.437,                                  ! ASHRAE Taub {dimensionless}
  2.197;                                  ! ASHRAE Taud {dimensionless}

OS:ComponentData,
  {6850fc0b-4bbd-4045-8403-12b1ca2891c3}, ! Handle
  Component Data 1,                       ! Name
  {919f1d5a-5953-464c-8548-cb365bb22ee9}, ! UUID
  {9fd945c4-2e3e-4842-9622-a9762675f58d}, ! Version UUID
  1366310736,                             ! Creation Timestamp
  1366310736,                             ! Version Timestamp
  {64f19233-a924-4cd2-a2b9-5e6423cfa004}; ! Name of Object 1

