
OS:Version,
  {1089000a-1e57-400d-9a09-f9e57c7a77e7}, ! Handle
  0.9.3;                                  ! Version Identifier

OS:SizingPeriod:DesignDay,
  {6d63aacb-105e-456b-9112-7a9418ad9d28}, ! Handle
  Long Beach Daugherty Fld Ann Clg .4% Condns DP=>MDB, ! Name
  24.7,                                   ! Maximum Dry-Bulb Temperature {C}
  9.5,                                    ! Daily Dry-Bulb Temperature Range {deltaC}
  20.6,                                   ! Humidity Indicating Conditions at Maximum Dry-Bulb {BasedOnField A3}
  101229,                                 ! Barometric Pressure {Pa}
  4.1,                                    ! Wind Speed {m/s}
  280,                                    ! Wind Direction {deg}
  0,                                      ! Sky Clearness
  0,                                      ! Rain Indicator
  0,                                      ! Snow Indicator
  21,                                     ! Day of Month
  8,                                      ! Month
  SummerDesignDay,                        ! Day Type
  0,                                      ! Daylight Saving Time Indicator
  Dewpoint,                               ! Humidity Indicating Type
  ,                                       ! Humidity Indicating Day Schedule Name
  DefaultMultipliers,                     ! Dry-Bulb Temperature Range Modifier Type
  ,                                       ! Dry-Bulb Temperature Range Modifier Schedule Name
  ASHRAETau,                              ! Solar Model Indicator
  ,                                       ! Beam Solar Day Schedule Name
  ,                                       ! Diffuse Solar Day Schedule Name
  0.45,                                   ! ASHRAE Taub {dimensionless}
  2.074;                                  ! ASHRAE Taud {dimensionless}

OS:ComponentData,
  {d782123e-76e9-472b-8fd7-24bd4f2f02d8}, ! Handle
  Component Data 1,                       ! Name
  {d3fceb18-9d17-4fd1-bbfd-c838c1a8a907}, ! UUID
  {71649c77-d091-4299-97a6-b6238fb5acc5}, ! Version UUID
  1366306473,                             ! Creation Timestamp
  1366306473,                             ! Version Timestamp
  {6d63aacb-105e-456b-9112-7a9418ad9d28}; ! Name of Object 1

