
OS:Version,
  {512ad332-b064-493a-9ed0-91aac3edda48}, ! Handle
  0.9.3;                                  ! Version Identifier

OS:SizingPeriod:DesignDay,
  {ff8091a6-0fe0-45cb-9113-4166d4ee91f5}, ! Handle
  Limon Ann Clg .4% Condns DB=>MWB,       ! Name
  33,                                     ! Maximum Dry-Bulb Temperature {C}
  16.7,                                   ! Daily Dry-Bulb Temperature Range {deltaC}
  15.8,                                   ! Humidity Indicating Conditions at Maximum Dry-Bulb {BasedOnField A3}
  82552,                                  ! Barometric Pressure {Pa}
  5.5,                                    ! Wind Speed {m/s}
  170,                                    ! Wind Direction {deg}
  0,                                      ! Sky Clearness
  0,                                      ! Rain Indicator
  0,                                      ! Snow Indicator
  21,                                     ! Day of Month
  7,                                      ! Month
  SummerDesignDay,                        ! Day Type
  0,                                      ! Daylight Saving Time Indicator
  Wetbulb,                                ! Humidity Indicating Type
  ,                                       ! Humidity Indicating Day Schedule Name
  DefaultMultipliers,                     ! Dry-Bulb Temperature Range Modifier Type
  ,                                       ! Dry-Bulb Temperature Range Modifier Schedule Name
  ASHRAETau,                              ! Solar Model Indicator
  ,                                       ! Beam Solar Day Schedule Name
  ,                                       ! Diffuse Solar Day Schedule Name
  0.412,                                  ! ASHRAE Taub {dimensionless}
  2.036;                                  ! ASHRAE Taud {dimensionless}

