
OS:Version,
  {8db6e7a1-4f19-4e9c-a20c-c4914a449e2e}, ! Handle
  0.9.3;                                  ! Version Identifier

OS:SizingPeriod:DesignDay,
  {54919c3d-6127-47b5-897a-51f086f0739b}, ! Handle
  Johnstown Cambria County Ap Ann Clg 1% Condns WB=>MDB, ! Name
  26,                                     ! Maximum Dry-Bulb Temperature {C}
  9.1,                                    ! Daily Dry-Bulb Temperature Range {deltaC}
  21.6,                                   ! Humidity Indicating Conditions at Maximum Dry-Bulb {BasedOnField A3}
  93250,                                  ! Barometric Pressure {Pa}
  4.3,                                    ! Wind Speed {m/s}
  290,                                    ! Wind Direction {deg}
  0,                                      ! Sky Clearness
  0,                                      ! Rain Indicator
  0,                                      ! Snow Indicator
  21,                                     ! Day of Month
  7,                                      ! Month
  SummerDesignDay,                        ! Day Type
  0,                                      ! Daylight Saving Time Indicator
  Wetbulb,                                ! Humidity Indicating Type
  ,                                       ! Humidity Indicating Day Schedule Name
  DefaultMultipliers,                     ! Dry-Bulb Temperature Range Modifier Type
  ,                                       ! Dry-Bulb Temperature Range Modifier Schedule Name
  ASHRAETau,                              ! Solar Model Indicator
  ,                                       ! Beam Solar Day Schedule Name
  ,                                       ! Diffuse Solar Day Schedule Name
  0.46,                                   ! ASHRAE Taub {dimensionless}
  1.96;                                   ! ASHRAE Taud {dimensionless}

OS:ComponentData,
  {97fa451a-e925-4552-96c8-4abb181a0a70}, ! Handle
  Component Data 1,                       ! Name
  {88bb9a2b-c630-4bf3-aaeb-b543c3ac03b4}, ! UUID
  {7e608119-2533-49c9-9335-64a55238c029}, ! Version UUID
  1366310202,                             ! Creation Timestamp
  1366310202,                             ! Version Timestamp
  {54919c3d-6127-47b5-897a-51f086f0739b}; ! Name of Object 1

