
OS:Version,
  {40b8f1c8-a9a5-45fb-94cb-078559f0952e}, ! Handle
  0.9.3;                                  ! Version Identifier

OS:SizingPeriod:DesignDay,
  {26090bed-da7b-4edc-ab8a-fbfba886e0b0}, ! Handle
  Albuquerque Intl Arpt  Isis Ann Htg Wind 99.6% Condns WS=>MCDB, ! Name
  0.9,                                    ! Maximum Dry-Bulb Temperature {C}
  0,                                      ! Daily Dry-Bulb Temperature Range {deltaC}
  0.9,                                    ! Humidity Indicating Conditions at Maximum Dry-Bulb {BasedOnField A3}
  83328,                                  ! Barometric Pressure {Pa}
  14.6,                                   ! Wind Speed {m/s}
  0,                                      ! Wind Direction {deg}
  0,                                      ! Sky Clearness
  0,                                      ! Rain Indicator
  0,                                      ! Snow Indicator
  21,                                     ! Day of Month
  12,                                     ! Month
  WinterDesignDay,                        ! Day Type
  0,                                      ! Daylight Saving Time Indicator
  Wetbulb,                                ! Humidity Indicating Type
  ,                                       ! Humidity Indicating Day Schedule Name
  DefaultMultipliers,                     ! Dry-Bulb Temperature Range Modifier Type
  ,                                       ! Dry-Bulb Temperature Range Modifier Schedule Name
  ASHRAEClearSky;                         ! Solar Model Indicator

OS:ComponentData,
  {22b72c04-9d95-4f59-b2e0-733eaffbc13b}, ! Handle
  Component Data 1,                       ! Name
  {07116cc3-7b70-4a88-99af-7a0e97660d8a}, ! UUID
  {b04f815c-89a4-447d-9f9d-ca4caf32b84f}, ! Version UUID
  1366309368,                             ! Creation Timestamp
  1366309368,                             ! Version Timestamp
  {26090bed-da7b-4edc-ab8a-fbfba886e0b0}; ! Name of Object 1

