
OS:Version,
  {6294ad20-fd05-4d98-8328-e9d92555ef58}, ! Handle
  0.9.3;                                  ! Version Identifier

OS:SizingPeriod:DesignDay,
  {cff39f63-ebc6-45d6-a22f-852f888f2a69}, ! Handle
  BAKERSFIELD Ann Clg 1% Condns DP=>MDB,  ! Name
  29.8,                                   ! Maximum Dry-Bulb Temperature {C}
  14.9,                                   ! Daily Dry-Bulb Temperature Range {deltaC}
  17.5,                                   ! Humidity Indicating Conditions at Maximum Dry-Bulb {BasedOnField A3}
  99536,                                  ! Barometric Pressure {Pa}
  5.3,                                    ! Wind Speed {m/s}
  300,                                    ! Wind Direction {deg}
  0,                                      ! Sky Clearness
  0,                                      ! Rain Indicator
  0,                                      ! Snow Indicator
  21,                                     ! Day of Month
  7,                                      ! Month
  SummerDesignDay,                        ! Day Type
  0,                                      ! Daylight Saving Time Indicator
  Dewpoint,                               ! Humidity Indicating Type
  ,                                       ! Humidity Indicating Day Schedule Name
  DefaultMultipliers,                     ! Dry-Bulb Temperature Range Modifier Type
  ,                                       ! Dry-Bulb Temperature Range Modifier Schedule Name
  ASHRAETau,                              ! Solar Model Indicator
  ,                                       ! Beam Solar Day Schedule Name
  ,                                       ! Diffuse Solar Day Schedule Name
  0.438,                                  ! ASHRAE Taub {dimensionless}
  2.106;                                  ! ASHRAE Taud {dimensionless}

OS:ComponentData,
  {0c078143-f2f6-4cb0-b2a2-ca015d60fbc2}, ! Handle
  Component Data 1,                       ! Name
  {e6bef320-eac9-47bf-a0cb-4e59c8388cea}, ! UUID
  {326d0227-abe9-47aa-bdb6-25932e9d9177}, ! Version UUID
  1366306369,                             ! Creation Timestamp
  1366306369,                             ! Version Timestamp
  {cff39f63-ebc6-45d6-a22f-852f888f2a69}; ! Name of Object 1

