
OS:Version,
  {4fe4398e-eef7-464f-9afe-e0551a4f1953}, ! Handle
  0.9.3;                                  ! Version Identifier

OS:SizingPeriod:DesignDay,
  {0362766e-c821-47d5-9b01-182d9de31809}, ! Handle
  Lemoore Reeves Nas Ann Hum_n 99.6% Condns DP=>MCDB, ! Name
  3.5,                                    ! Maximum Dry-Bulb Temperature {C}
  0,                                      ! Daily Dry-Bulb Temperature Range {deltaC}
  -7.3,                                   ! Humidity Indicating Conditions at Maximum Dry-Bulb {BasedOnField A3}
  100451,                                 ! Barometric Pressure {Pa}
  1.5,                                    ! Wind Speed {m/s}
  150,                                    ! Wind Direction {deg}
  0,                                      ! Sky Clearness
  0,                                      ! Rain Indicator
  0,                                      ! Snow Indicator
  21,                                     ! Day of Month
  12,                                     ! Month
  WinterDesignDay,                        ! Day Type
  0,                                      ! Daylight Saving Time Indicator
  Dewpoint,                               ! Humidity Indicating Type
  ,                                       ! Humidity Indicating Day Schedule Name
  DefaultMultipliers,                     ! Dry-Bulb Temperature Range Modifier Type
  ,                                       ! Dry-Bulb Temperature Range Modifier Schedule Name
  ASHRAEClearSky;                         ! Solar Model Indicator

OS:ComponentData,
  {dce7bcfd-f1f4-4381-8f3c-0a642d318eb2}, ! Handle
  Component Data 1,                       ! Name
  {184e8538-8695-44e1-a067-0b57edd9dadc}, ! UUID
  {5397673c-5fe1-486d-81fe-d81a2b627f94}, ! Version UUID
  1366306460,                             ! Creation Timestamp
  1366306460,                             ! Version Timestamp
  {0362766e-c821-47d5-9b01-182d9de31809}; ! Name of Object 1

