
OS:Version,
  {48853574-e04d-457f-acac-a9f6b9b557fe}, ! Handle
  0.9.3;                                  ! Version Identifier

OS:SizingPeriod:DesignDay,
  {15295680-303b-4db7-a52b-8bd6b18da351}, ! Handle
  Fort Smith Regional Ap Ann Clg 1% Condns Enth=>MDB, ! Name
  32.9,                                   ! Maximum Dry-Bulb Temperature {C}
  11.5,                                   ! Daily Dry-Bulb Temperature Range {deltaC}
  80600,                                  ! Humidity Indicating Conditions at Maximum Dry-Bulb {BasedOnField A3}
  99690,                                  ! Barometric Pressure {Pa}
  3.7,                                    ! Wind Speed {m/s}
  230,                                    ! Wind Direction {deg}
  0,                                      ! Sky Clearness
  0,                                      ! Rain Indicator
  0,                                      ! Snow Indicator
  21,                                     ! Day of Month
  7,                                      ! Month
  SummerDesignDay,                        ! Day Type
  0,                                      ! Daylight Saving Time Indicator
  Enthalpy,                               ! Humidity Indicating Type
  ,                                       ! Humidity Indicating Day Schedule Name
  DefaultMultipliers,                     ! Dry-Bulb Temperature Range Modifier Type
  ,                                       ! Dry-Bulb Temperature Range Modifier Schedule Name
  ASHRAETau,                              ! Solar Model Indicator
  ,                                       ! Beam Solar Day Schedule Name
  ,                                       ! Diffuse Solar Day Schedule Name
  0.49,                                   ! ASHRAE Taub {dimensionless}
  1.983;                                  ! ASHRAE Taud {dimensionless}

OS:ComponentData,
  {2463c768-ccf4-4330-af00-a9a57458006e}, ! Handle
  Component Data 1,                       ! Name
  {99278b33-d359-40d5-9711-e0f4287eb1f7}, ! UUID
  {2786078a-6e14-4533-8750-a674dff4df45}, ! Version UUID
  1366306213,                             ! Creation Timestamp
  1366306213,                             ! Version Timestamp
  {15295680-303b-4db7-a52b-8bd6b18da351}; ! Name of Object 1

