
OS:Version,
  {77ce71db-7c0e-4bf0-bdd5-695f265acaf2}, ! Handle
  0.9.3;                                  ! Version Identifier

OS:SizingPeriod:DesignDay,
  {ace7c2de-aeb8-40f4-953f-049b9fe341be}, ! Handle
  Auburn Lewiston Ann Clg 2% Condns DP=>MDB, ! Name
  23.4,                                   ! Maximum Dry-Bulb Temperature {C}
  11.4,                                   ! Daily Dry-Bulb Temperature Range {deltaC}
  19,                                     ! Humidity Indicating Conditions at Maximum Dry-Bulb {BasedOnField A3}
  100272,                                 ! Barometric Pressure {Pa}
  4,                                      ! Wind Speed {m/s}
  210,                                    ! Wind Direction {deg}
  0,                                      ! Sky Clearness
  0,                                      ! Rain Indicator
  0,                                      ! Snow Indicator
  21,                                     ! Day of Month
  7,                                      ! Month
  SummerDesignDay,                        ! Day Type
  0,                                      ! Daylight Saving Time Indicator
  Dewpoint,                               ! Humidity Indicating Type
  ,                                       ! Humidity Indicating Day Schedule Name
  DefaultMultipliers,                     ! Dry-Bulb Temperature Range Modifier Type
  ,                                       ! Dry-Bulb Temperature Range Modifier Schedule Name
  ASHRAETau,                              ! Solar Model Indicator
  ,                                       ! Beam Solar Day Schedule Name
  ,                                       ! Diffuse Solar Day Schedule Name
  0.462,                                  ! ASHRAE Taub {dimensionless}
  2.003;                                  ! ASHRAE Taud {dimensionless}

OS:ComponentData,
  {00d550c5-864c-47d1-9cc5-6dcd68f58597}, ! Handle
  Component Data 1,                       ! Name
  {975d81af-ddaa-4740-9236-7eda9d045a41}, ! UUID
  {2e2c5809-a7ee-4aee-8896-f282a6563fed}, ! Version UUID
  1366307865,                             ! Creation Timestamp
  1366307865,                             ! Version Timestamp
  {ace7c2de-aeb8-40f4-953f-049b9fe341be}; ! Name of Object 1

