
OS:Version,
  {5daebe3f-3440-4f6d-9c5f-7ff10575004c}, ! Handle
  0.9.3;                                  ! Version Identifier

OS:SizingPeriod:DesignDay,
  {e3cf1dd1-2fdd-480f-9c74-1398dfb8c1f2}, ! Handle
  HARTFORD Ann Clg .4% Condns Enth=>MDB,  ! Name
  29.9,                                   ! Maximum Dry-Bulb Temperature {C}
  9.9,                                    ! Daily Dry-Bulb Temperature Range {deltaC}
  76300,                                  ! Humidity Indicating Conditions at Maximum Dry-Bulb {BasedOnField A3}
  100666,                                 ! Barometric Pressure {Pa}
  4.6,                                    ! Wind Speed {m/s}
  260,                                    ! Wind Direction {deg}
  0,                                      ! Sky Clearness
  0,                                      ! Rain Indicator
  0,                                      ! Snow Indicator
  21,                                     ! Day of Month
  7,                                      ! Month
  SummerDesignDay,                        ! Day Type
  0,                                      ! Daylight Saving Time Indicator
  Enthalpy,                               ! Humidity Indicating Type
  ,                                       ! Humidity Indicating Day Schedule Name
  DefaultMultipliers,                     ! Dry-Bulb Temperature Range Modifier Type
  ,                                       ! Dry-Bulb Temperature Range Modifier Schedule Name
  ASHRAETau,                              ! Solar Model Indicator
  ,                                       ! Beam Solar Day Schedule Name
  ,                                       ! Diffuse Solar Day Schedule Name
  0.496,                                  ! ASHRAE Taub {dimensionless}
  1.916;                                  ! ASHRAE Taud {dimensionless}

OS:ComponentData,
  {d0b3043d-1550-4604-bae3-5a8c0dd4b023}, ! Handle
  Component Data 1,                       ! Name
  {3d5d65dc-ddad-49dd-8e86-b578a261e92c}, ! UUID
  {acfb18a0-398a-4831-9372-6d96bab8e9f0}, ! Version UUID
  1366306763,                             ! Creation Timestamp
  1366306763,                             ! Version Timestamp
  {e3cf1dd1-2fdd-480f-9c74-1398dfb8c1f2}; ! Name of Object 1

