
OS:Version,
  {d0625895-544b-437f-b38c-74458389499e}, ! Handle
  0.9.3;                                  ! Version Identifier

OS:SizingPeriod:DesignDay,
  {9d4b5749-434c-4979-9e24-cb8eefbd6270}, ! Handle
  Dothan Municipal Ap Ann Clg .4% Condns Enth=>MDB, ! Name
  32,                                     ! Maximum Dry-Bulb Temperature {C}
  9.7,                                    ! Daily Dry-Bulb Temperature Range {deltaC}
  83800,                                  ! Humidity Indicating Conditions at Maximum Dry-Bulb {BasedOnField A3}
  100153,                                 ! Barometric Pressure {Pa}
  3.7,                                    ! Wind Speed {m/s}
  300,                                    ! Wind Direction {deg}
  0,                                      ! Sky Clearness
  0,                                      ! Rain Indicator
  0,                                      ! Snow Indicator
  21,                                     ! Day of Month
  7,                                      ! Month
  SummerDesignDay,                        ! Day Type
  0,                                      ! Daylight Saving Time Indicator
  Enthalpy,                               ! Humidity Indicating Type
  ,                                       ! Humidity Indicating Day Schedule Name
  DefaultMultipliers,                     ! Dry-Bulb Temperature Range Modifier Type
  ,                                       ! Dry-Bulb Temperature Range Modifier Schedule Name
  ASHRAETau,                              ! Solar Model Indicator
  ,                                       ! Beam Solar Day Schedule Name
  ,                                       ! Diffuse Solar Day Schedule Name
  0.544,                                  ! ASHRAE Taub {dimensionless}
  1.83;                                   ! ASHRAE Taud {dimensionless}

