
OS:Version,
  {c9361ac6-b595-4157-8516-f3d9af2073df}, ! Handle
  0.9.3;                                  ! Version Identifier

OS:SizingPeriod:DesignDay,
  {672e7c00-33c2-410d-b359-a8832f3369d7}, ! Handle
  Elko Ann Clg .4% Condns DP=>MDB,        ! Name
  20.1,                                   ! Maximum Dry-Bulb Temperature {C}
  21.8,                                   ! Daily Dry-Bulb Temperature Range {deltaC}
  13.8,                                   ! Humidity Indicating Conditions at Maximum Dry-Bulb {BasedOnField A3}
  83884,                                  ! Barometric Pressure {Pa}
  4.1,                                    ! Wind Speed {m/s}
  240,                                    ! Wind Direction {deg}
  0,                                      ! Sky Clearness
  0,                                      ! Rain Indicator
  0,                                      ! Snow Indicator
  21,                                     ! Day of Month
  7,                                      ! Month
  SummerDesignDay,                        ! Day Type
  0,                                      ! Daylight Saving Time Indicator
  Dewpoint,                               ! Humidity Indicating Type
  ,                                       ! Humidity Indicating Day Schedule Name
  DefaultMultipliers,                     ! Dry-Bulb Temperature Range Modifier Type
  ,                                       ! Dry-Bulb Temperature Range Modifier Schedule Name
  ASHRAETau,                              ! Solar Model Indicator
  ,                                       ! Beam Solar Day Schedule Name
  ,                                       ! Diffuse Solar Day Schedule Name
  0.446,                                  ! ASHRAE Taub {dimensionless}
  1.888;                                  ! ASHRAE Taud {dimensionless}

OS:ComponentData,
  {452848eb-4d31-4e6d-833d-77c510153add}, ! Handle
  Component Data 1,                       ! Name
  {9e13f268-183d-4a1e-bb86-b14003220bb2}, ! UUID
  {d22e196e-4812-4ec8-9f71-afc4ee6e05cb}, ! Version UUID
  1366309463,                             ! Creation Timestamp
  1366309463,                             ! Version Timestamp
  {672e7c00-33c2-410d-b359-a8832f3369d7}; ! Name of Object 1

