
OS:Version,
  {c356330c-cb92-45cb-847b-b220a0664f73}, ! Handle
  0.9.3;                                  ! Version Identifier

OS:SizingPeriod:DesignDay,
  {b41a2f98-d468-478d-b951-05e992d1fcc5}, ! Handle
  Creston Ann Clg 2% Condns DP=>MDB,      ! Name
  27.8,                                   ! Maximum Dry-Bulb Temperature {C}
  10.2,                                   ! Daily Dry-Bulb Temperature Range {deltaC}
  23,                                     ! Humidity Indicating Conditions at Maximum Dry-Bulb {BasedOnField A3}
  96680,                                  ! Barometric Pressure {Pa}
  5,                                      ! Wind Speed {m/s}
  200,                                    ! Wind Direction {deg}
  0,                                      ! Sky Clearness
  0,                                      ! Rain Indicator
  0,                                      ! Snow Indicator
  21,                                     ! Day of Month
  7,                                      ! Month
  SummerDesignDay,                        ! Day Type
  0,                                      ! Daylight Saving Time Indicator
  Dewpoint,                               ! Humidity Indicating Type
  ,                                       ! Humidity Indicating Day Schedule Name
  DefaultMultipliers,                     ! Dry-Bulb Temperature Range Modifier Type
  ,                                       ! Dry-Bulb Temperature Range Modifier Schedule Name
  ASHRAETau,                              ! Solar Model Indicator
  ,                                       ! Beam Solar Day Schedule Name
  ,                                       ! Diffuse Solar Day Schedule Name
  0.417,                                  ! ASHRAE Taub {dimensionless}
  2.197;                                  ! ASHRAE Taud {dimensionless}

OS:ComponentData,
  {98f4dfc8-d757-42e5-b7cf-a57bf8d1f18c}, ! Handle
  Component Data 1,                       ! Name
  {13360589-e424-4e9d-a8f5-18e8abe5a342}, ! UUID
  {b87f40f2-ce32-40ae-aaac-dbf3715a4ba6}, ! Version UUID
  1366307165,                             ! Creation Timestamp
  1366307165,                             ! Version Timestamp
  {b41a2f98-d468-478d-b951-05e992d1fcc5}; ! Name of Object 1

