
OS:Version,
  {d6d7eef1-b53b-4acd-8c3a-0cf9fe4fb594}, ! Handle
  0.9.3;                                  ! Version Identifier

OS:SizingPeriod:DesignDay,
  {1eb8bf9b-9c06-43a0-bcf8-576008458f0d}, ! Handle
  Allentown Lehigh Valley Intl Ann Clg .4% Condns Enth=>MDB, ! Name
  30.2,                                   ! Maximum Dry-Bulb Temperature {C}
  10.7,                                   ! Daily Dry-Bulb Temperature Range {deltaC}
  75700,                                  ! Humidity Indicating Conditions at Maximum Dry-Bulb {BasedOnField A3}
  99904,                                  ! Barometric Pressure {Pa}
  4.6,                                    ! Wind Speed {m/s}
  240,                                    ! Wind Direction {deg}
  0,                                      ! Sky Clearness
  0,                                      ! Rain Indicator
  0,                                      ! Snow Indicator
  21,                                     ! Day of Month
  7,                                      ! Month
  SummerDesignDay,                        ! Day Type
  0,                                      ! Daylight Saving Time Indicator
  Enthalpy,                               ! Humidity Indicating Type
  ,                                       ! Humidity Indicating Day Schedule Name
  DefaultMultipliers,                     ! Dry-Bulb Temperature Range Modifier Type
  ,                                       ! Dry-Bulb Temperature Range Modifier Schedule Name
  ASHRAETau,                              ! Solar Model Indicator
  ,                                       ! Beam Solar Day Schedule Name
  ,                                       ! Diffuse Solar Day Schedule Name
  0.504,                                  ! ASHRAE Taub {dimensionless}
  1.885;                                  ! ASHRAE Taud {dimensionless}

OS:ComponentData,
  {0c9edcd7-1c63-4003-baa0-e05ad507b420}, ! Handle
  Component Data 1,                       ! Name
  {05cb4eb4-35d5-40c3-9edb-212a8e8417a8}, ! UUID
  {3511e5aa-6f8e-4293-adea-2a0196028fd7}, ! Version UUID
  1366310133,                             ! Creation Timestamp
  1366310133,                             ! Version Timestamp
  {1eb8bf9b-9c06-43a0-bcf8-576008458f0d}; ! Name of Object 1

