
OS:Version,
  {b9100af3-4d6d-4ec3-95bc-9309b904ba39}, ! Handle
  0.9.3;                                  ! Version Identifier

OS:SizingPeriod:DesignDay,
  {49644c54-32e2-465f-9ad3-1b6ef742eab2}, ! Handle
  Chariton Ann Clg .4% Condns WB=>MDB,    ! Name
  32.4,                                   ! Maximum Dry-Bulb Temperature {C}
  10.3,                                   ! Daily Dry-Bulb Temperature Range {deltaC}
  27.5,                                   ! Humidity Indicating Conditions at Maximum Dry-Bulb {BasedOnField A3}
  97539,                                  ! Barometric Pressure {Pa}
  4.5,                                    ! Wind Speed {m/s}
  200,                                    ! Wind Direction {deg}
  0,                                      ! Sky Clearness
  0,                                      ! Rain Indicator
  0,                                      ! Snow Indicator
  21,                                     ! Day of Month
  7,                                      ! Month
  SummerDesignDay,                        ! Day Type
  0,                                      ! Daylight Saving Time Indicator
  Wetbulb,                                ! Humidity Indicating Type
  ,                                       ! Humidity Indicating Day Schedule Name
  DefaultMultipliers,                     ! Dry-Bulb Temperature Range Modifier Type
  ,                                       ! Dry-Bulb Temperature Range Modifier Schedule Name
  ASHRAETau,                              ! Solar Model Indicator
  ,                                       ! Beam Solar Day Schedule Name
  ,                                       ! Diffuse Solar Day Schedule Name
  0.431,                                  ! ASHRAE Taub {dimensionless}
  2.145;                                  ! ASHRAE Taud {dimensionless}

OS:ComponentData,
  {a3fdfbac-a7db-4de0-b98e-2db9124175d2}, ! Handle
  Component Data 1,                       ! Name
  {d81ec8c2-487c-455b-abed-a685cfc2fe25}, ! UUID
  {fe9a4d86-625c-403e-ab9d-a6f9f858a22a}, ! Version UUID
  1366307152,                             ! Creation Timestamp
  1366307152,                             ! Version Timestamp
  {49644c54-32e2-465f-9ad3-1b6ef742eab2}; ! Name of Object 1

