
OS:Version,
  {9ee7a62d-4644-45bd-bd66-3510504f6807}, ! Handle
  0.9.3;                                  ! Version Identifier

OS:SizingPeriod:DesignDay,
  {2523d801-caba-4715-a01c-34047c46014e}, ! Handle
  Fayetteville Drake Field Ann Htg 99% Condns DB, ! Name
  -9.6,                                   ! Maximum Dry-Bulb Temperature {C}
  0,                                      ! Daily Dry-Bulb Temperature Range {deltaC}
  -9.6,                                   ! Humidity Indicating Conditions at Maximum Dry-Bulb {BasedOnField A3}
  96831,                                  ! Barometric Pressure {Pa}
  3.7,                                    ! Wind Speed {m/s}
  0,                                      ! Wind Direction {deg}
  0,                                      ! Sky Clearness
  0,                                      ! Rain Indicator
  0,                                      ! Snow Indicator
  21,                                     ! Day of Month
  1,                                      ! Month
  WinterDesignDay,                        ! Day Type
  0,                                      ! Daylight Saving Time Indicator
  Wetbulb,                                ! Humidity Indicating Type
  ,                                       ! Humidity Indicating Day Schedule Name
  DefaultMultipliers,                     ! Dry-Bulb Temperature Range Modifier Type
  ,                                       ! Dry-Bulb Temperature Range Modifier Schedule Name
  ASHRAEClearSky;                         ! Solar Model Indicator

OS:ComponentData,
  {eacb13da-2786-4bd8-8910-5a0691efa530}, ! Handle
  Component Data 1,                       ! Name
  {693f4c28-9f61-4c5d-a1d1-e6ba824891d2}, ! UUID
  {afdef55a-7973-4e2a-ae32-bee77361ece9}, ! Version UUID
  1366306199,                             ! Creation Timestamp
  1366306199,                             ! Version Timestamp
  {2523d801-caba-4715-a01c-34047c46014e}; ! Name of Object 1

