
OS:Version,
  {55762ed5-1830-4927-8cb7-2c7aca568b56}, ! Handle
  0.9.3;                                  ! Version Identifier

OS:SizingPeriod:DesignDay,
  {c168047a-ba91-4666-bdb9-c478f823b067}, ! Handle
  Athens Ben Epps Ap Ann Clg 1% Condns Enth=>MDB, ! Name
  31.1,                                   ! Maximum Dry-Bulb Temperature {C}
  10.8,                                   ! Daily Dry-Bulb Temperature Range {deltaC}
  77100,                                  ! Humidity Indicating Conditions at Maximum Dry-Bulb {BasedOnField A3}
  98428,                                  ! Barometric Pressure {Pa}
  3.5,                                    ! Wind Speed {m/s}
  270,                                    ! Wind Direction {deg}
  0,                                      ! Sky Clearness
  0,                                      ! Rain Indicator
  0,                                      ! Snow Indicator
  21,                                     ! Day of Month
  7,                                      ! Month
  SummerDesignDay,                        ! Day Type
  0,                                      ! Daylight Saving Time Indicator
  Enthalpy,                               ! Humidity Indicating Type
  ,                                       ! Humidity Indicating Day Schedule Name
  DefaultMultipliers,                     ! Dry-Bulb Temperature Range Modifier Type
  ,                                       ! Dry-Bulb Temperature Range Modifier Schedule Name
  ASHRAETau,                              ! Solar Model Indicator
  ,                                       ! Beam Solar Day Schedule Name
  ,                                       ! Diffuse Solar Day Schedule Name
  0.539,                                  ! ASHRAE Taub {dimensionless}
  1.828;                                  ! ASHRAE Taud {dimensionless}

OS:ComponentData,
  {bc5d99e2-a0f8-40d6-89c0-c2ee03f6a8e2}, ! Handle
  Component Data 1,                       ! Name
  {09967f6b-c07c-485a-83ab-8d112ad5b8b5}, ! UUID
  {7070310a-027a-47d6-8152-bebe569792ea}, ! Version UUID
  1366306966,                             ! Creation Timestamp
  1366306966,                             ! Version Timestamp
  {c168047a-ba91-4666-bdb9-c478f823b067}; ! Name of Object 1

