
OS:Version,
  {ad57e18f-fe2f-41e4-881c-0ef80ebd8ab4}, ! Handle
  0.9.3;                                  ! Version Identifier

OS:SizingPeriod:DesignDay,
  {1f9f0015-1107-41c5-a281-c1e1e27cc1f4}, ! Handle
  Erie International Ap Ann Clg 1% Condns Enth=>MDB, ! Name
  27.3,                                   ! Maximum Dry-Bulb Temperature {C}
  8.3,                                    ! Daily Dry-Bulb Temperature Range {deltaC}
  70000,                                  ! Humidity Indicating Conditions at Maximum Dry-Bulb {BasedOnField A3}
  98686,                                  ! Barometric Pressure {Pa}
  5,                                      ! Wind Speed {m/s}
  260,                                    ! Wind Direction {deg}
  0,                                      ! Sky Clearness
  0,                                      ! Rain Indicator
  0,                                      ! Snow Indicator
  21,                                     ! Day of Month
  7,                                      ! Month
  SummerDesignDay,                        ! Day Type
  0,                                      ! Daylight Saving Time Indicator
  Enthalpy,                               ! Humidity Indicating Type
  ,                                       ! Humidity Indicating Day Schedule Name
  DefaultMultipliers,                     ! Dry-Bulb Temperature Range Modifier Type
  ,                                       ! Dry-Bulb Temperature Range Modifier Schedule Name
  ASHRAETau,                              ! Solar Model Indicator
  ,                                       ! Beam Solar Day Schedule Name
  ,                                       ! Diffuse Solar Day Schedule Name
  0.455,                                  ! ASHRAE Taub {dimensionless}
  2.041;                                  ! ASHRAE Taud {dimensionless}

OS:ComponentData,
  {84e11e62-2dcc-448f-a8fc-84ef29193ef5}, ! Handle
  Component Data 1,                       ! Name
  {92823ace-56fa-4e0e-92de-700fbf8754f6}, ! UUID
  {3295b1d1-85b7-451d-a1ef-24b56ece9247}, ! Version UUID
  1366310175,                             ! Creation Timestamp
  1366310175,                             ! Version Timestamp
  {1f9f0015-1107-41c5-a281-c1e1e27cc1f4}; ! Name of Object 1

