
OS:Version,
  {72148af6-699f-48b9-8622-67a01f6b5807}, ! Handle
  0.9.3;                                  ! Version Identifier

OS:SizingPeriod:DesignDay,
  {93bf7587-e9b7-47b6-b9c1-5329a51eb687}, ! Handle
  Abilene Dyess Afb Ann Clg 1% Condns DP=>MDB, ! Name
  27.1,                                   ! Maximum Dry-Bulb Temperature {C}
  12.4,                                   ! Daily Dry-Bulb Temperature Range {deltaC}
  22.4,                                   ! Humidity Indicating Conditions at Maximum Dry-Bulb {BasedOnField A3}
  94947,                                  ! Barometric Pressure {Pa}
  4.5,                                    ! Wind Speed {m/s}
  170,                                    ! Wind Direction {deg}
  0,                                      ! Sky Clearness
  0,                                      ! Rain Indicator
  0,                                      ! Snow Indicator
  21,                                     ! Day of Month
  7,                                      ! Month
  SummerDesignDay,                        ! Day Type
  0,                                      ! Daylight Saving Time Indicator
  Dewpoint,                               ! Humidity Indicating Type
  ,                                       ! Humidity Indicating Day Schedule Name
  DefaultMultipliers,                     ! Dry-Bulb Temperature Range Modifier Type
  ,                                       ! Dry-Bulb Temperature Range Modifier Schedule Name
  ASHRAETau,                              ! Solar Model Indicator
  ,                                       ! Beam Solar Day Schedule Name
  ,                                       ! Diffuse Solar Day Schedule Name
  0.427,                                  ! ASHRAE Taub {dimensionless}
  2.168;                                  ! ASHRAE Taud {dimensionless}

OS:ComponentData,
  {7f28c146-edae-4a90-83a4-87706458bdef}, ! Handle
  Component Data 1,                       ! Name
  {86784d23-dfce-492e-ae0d-47174e4237aa}, ! UUID
  {ef1bd603-ebf3-44e5-9e52-b8c1f0357a05}, ! Version UUID
  1366310547,                             ! Creation Timestamp
  1366310547,                             ! Version Timestamp
  {93bf7587-e9b7-47b6-b9c1-5329a51eb687}; ! Name of Object 1

