
OS:Version,
  {b375d210-4013-4d42-80f9-3b0c230c46dd}, ! Handle
  0.9.3;                                  ! Version Identifier

OS:SizingPeriod:DesignDay,
  {4878b4a6-80f0-4436-ad1c-61f96ff6870c}, ! Handle
  Beckley Raleigh Co Mem Ap Ann Htg Wind 99% Condns WS=>MCDB, ! Name
  0.6,                                    ! Maximum Dry-Bulb Temperature {C}
  0,                                      ! Daily Dry-Bulb Temperature Range {deltaC}
  0.6,                                    ! Humidity Indicating Conditions at Maximum Dry-Bulb {BasedOnField A3}
  92488,                                  ! Barometric Pressure {Pa}
  10.1,                                   ! Wind Speed {m/s}
  310,                                    ! Wind Direction {deg}
  0,                                      ! Sky Clearness
  0,                                      ! Rain Indicator
  0,                                      ! Snow Indicator
  21,                                     ! Day of Month
  1,                                      ! Month
  WinterDesignDay,                        ! Day Type
  0,                                      ! Daylight Saving Time Indicator
  Wetbulb,                                ! Humidity Indicating Type
  ,                                       ! Humidity Indicating Day Schedule Name
  DefaultMultipliers,                     ! Dry-Bulb Temperature Range Modifier Type
  ,                                       ! Dry-Bulb Temperature Range Modifier Schedule Name
  ASHRAEClearSky;                         ! Solar Model Indicator

OS:ComponentData,
  {a65f91c2-9f2c-4d10-bbb1-ce5c99cf0269}, ! Handle
  Component Data 1,                       ! Name
  {62f77a67-d2a1-45ef-8932-93c6e7f71a8f}, ! UUID
  {04ca71cd-0754-4b8f-b2f8-051af34e76bd}, ! Version UUID
  1366311607,                             ! Creation Timestamp
  1366311607,                             ! Version Timestamp
  {4878b4a6-80f0-4436-ad1c-61f96ff6870c}; ! Name of Object 1

