
OS:Version,
  {6d103870-5504-4b22-8f25-5ebefd2dd4f8}, ! Handle
  0.9.3;                                  ! Version Identifier

OS:SizingPeriod:DesignDay,
  {5bc7d4cb-ae39-4c5a-b3ac-466aaca6d275}, ! Handle
  Grand Junction Walker Field Ann Clg 1% Condns WB=>MDB, ! Name
  28.8,                                   ! Maximum Dry-Bulb Temperature {C}
  15.3,                                   ! Daily Dry-Bulb Temperature Range {deltaC}
  18,                                     ! Humidity Indicating Conditions at Maximum Dry-Bulb {BasedOnField A3}
  84816,                                  ! Barometric Pressure {Pa}
  4.6,                                    ! Wind Speed {m/s}
  270,                                    ! Wind Direction {deg}
  0,                                      ! Sky Clearness
  0,                                      ! Rain Indicator
  0,                                      ! Snow Indicator
  21,                                     ! Day of Month
  7,                                      ! Month
  SummerDesignDay,                        ! Day Type
  0,                                      ! Daylight Saving Time Indicator
  Wetbulb,                                ! Humidity Indicating Type
  ,                                       ! Humidity Indicating Day Schedule Name
  DefaultMultipliers,                     ! Dry-Bulb Temperature Range Modifier Type
  ,                                       ! Dry-Bulb Temperature Range Modifier Schedule Name
  ASHRAETau,                              ! Solar Model Indicator
  ,                                       ! Beam Solar Day Schedule Name
  ,                                       ! Diffuse Solar Day Schedule Name
  0.41,                                   ! ASHRAE Taub {dimensionless}
  2.106;                                  ! ASHRAE Taud {dimensionless}

