
OS:Version,
  {39235629-bdbe-41cc-bad2-38c2e9f8124f}, ! Handle
  0.9.3;                                  ! Version Identifier

OS:SizingPeriod:DesignDay,
  {788fe2b6-f5e6-4b94-9569-2cfb432fd9a3}, ! Handle
  Bellingham Intl Ap Ann Hum_n 99% Condns DP=>MCDB, ! Name
  -2.9,                                   ! Maximum Dry-Bulb Temperature {C}
  0,                                      ! Daily Dry-Bulb Temperature Range {deltaC}
  -13.4,                                  ! Humidity Indicating Conditions at Maximum Dry-Bulb {BasedOnField A3}
  100786,                                 ! Barometric Pressure {Pa}
  6.1,                                    ! Wind Speed {m/s}
  30,                                     ! Wind Direction {deg}
  0,                                      ! Sky Clearness
  0,                                      ! Rain Indicator
  0,                                      ! Snow Indicator
  21,                                     ! Day of Month
  12,                                     ! Month
  WinterDesignDay,                        ! Day Type
  0,                                      ! Daylight Saving Time Indicator
  Dewpoint,                               ! Humidity Indicating Type
  ,                                       ! Humidity Indicating Day Schedule Name
  DefaultMultipliers,                     ! Dry-Bulb Temperature Range Modifier Type
  ,                                       ! Dry-Bulb Temperature Range Modifier Schedule Name
  ASHRAEClearSky;                         ! Solar Model Indicator

OS:ComponentData,
  {f415f07d-5560-405a-bb71-c90b981b02a1}, ! Handle
  Component Data 1,                       ! Name
  {524b6f01-ac80-42e3-b1e8-bea3f8aa2df5}, ! UUID
  {1e0a2fbd-dfd4-406b-927e-9aa6e10b939d}, ! Version UUID
  1366311266,                             ! Creation Timestamp
  1366311266,                             ! Version Timestamp
  {788fe2b6-f5e6-4b94-9569-2cfb432fd9a3}; ! Name of Object 1

