
OS:Version,
  {8ab76723-3c6d-4c0e-8cbf-9bf329ca3673}, ! Handle
  0.9.3;                                  ! Version Identifier

OS:SizingPeriod:DesignDay,
  {ffe0b8c4-8daa-4714-be9b-031a3f87eb13}, ! Handle
  Chula Vista Brown Field Naas Ann Hum_n 99.6% Condns DP=>MCDB, ! Name
  14.4,                                   ! Maximum Dry-Bulb Temperature {C}
  0,                                      ! Daily Dry-Bulb Temperature Range {deltaC}
  -12.9,                                  ! Humidity Indicating Conditions at Maximum Dry-Bulb {BasedOnField A3}
  99429,                                  ! Barometric Pressure {Pa}
  3,                                      ! Wind Speed {m/s}
  120,                                    ! Wind Direction {deg}
  0,                                      ! Sky Clearness
  0,                                      ! Rain Indicator
  0,                                      ! Snow Indicator
  21,                                     ! Day of Month
  12,                                     ! Month
  WinterDesignDay,                        ! Day Type
  0,                                      ! Daylight Saving Time Indicator
  Dewpoint,                               ! Humidity Indicating Type
  ,                                       ! Humidity Indicating Day Schedule Name
  DefaultMultipliers,                     ! Dry-Bulb Temperature Range Modifier Type
  ,                                       ! Dry-Bulb Temperature Range Modifier Schedule Name
  ASHRAEClearSky;                         ! Solar Model Indicator

OS:ComponentData,
  {95557ed9-278a-4a77-8efc-e9f55dfd464d}, ! Handle
  Component Data 1,                       ! Name
  {fc6232a2-ecc6-4d2e-9dc1-f0fe5d2895a1}, ! UUID
  {48a0e635-9143-4681-bb62-54d3efaa6aa4}, ! Version UUID
  1366306409,                             ! Creation Timestamp
  1366306409,                             ! Version Timestamp
  {ffe0b8c4-8daa-4714-be9b-031a3f87eb13}; ! Name of Object 1

