
OS:Version,
  {ce72cf5a-7213-475c-aec9-2dcc015eadad}, ! Handle
  0.9.3;                                  ! Version Identifier

OS:SizingPeriod:DesignDay,
  {a0d0115b-aece-45b5-a82b-c4dbb3921575}, ! Handle
  AUGUSTA Ann Clg .4% Condns DP=>MDB,     ! Name
  28.5,                                   ! Maximum Dry-Bulb Temperature {C}
  11.7,                                   ! Daily Dry-Bulb Temperature Range {deltaC}
  24.7,                                   ! Humidity Indicating Conditions at Maximum Dry-Bulb {BasedOnField A3}
  100786,                                 ! Barometric Pressure {Pa}
  3.8,                                    ! Wind Speed {m/s}
  240,                                    ! Wind Direction {deg}
  0,                                      ! Sky Clearness
  0,                                      ! Rain Indicator
  0,                                      ! Snow Indicator
  21,                                     ! Day of Month
  7,                                      ! Month
  SummerDesignDay,                        ! Day Type
  0,                                      ! Daylight Saving Time Indicator
  Dewpoint,                               ! Humidity Indicating Type
  ,                                       ! Humidity Indicating Day Schedule Name
  DefaultMultipliers,                     ! Dry-Bulb Temperature Range Modifier Type
  ,                                       ! Dry-Bulb Temperature Range Modifier Schedule Name
  ASHRAETau,                              ! Solar Model Indicator
  ,                                       ! Beam Solar Day Schedule Name
  ,                                       ! Diffuse Solar Day Schedule Name
  0.559,                                  ! ASHRAE Taub {dimensionless}
  1.788;                                  ! ASHRAE Taud {dimensionless}

OS:ComponentData,
  {adb7f1b9-727f-4287-8c27-048827b3c825}, ! Handle
  Component Data 1,                       ! Name
  {254b76d0-4844-4378-abba-21e77dbb1269}, ! UUID
  {46ead495-cc3b-4468-8511-6874774b8439}, ! Version UUID
  1366306993,                             ! Creation Timestamp
  1366306993,                             ! Version Timestamp
  {a0d0115b-aece-45b5-a82b-c4dbb3921575}; ! Name of Object 1

