
OS:Version,
  {5e3cb5c4-a036-48eb-acee-8fa2164833df}, ! Handle
  0.9.3;                                  ! Version Identifier

OS:SizingPeriod:DesignDay,
  {9f755dbc-c1b1-49be-84b5-d11d4ddcec03}, ! Handle
  Fergus Falls Awos Ann Clg 1% Condns Enth=>MDB, ! Name
  27.4,                                   ! Maximum Dry-Bulb Temperature {C}
  11.6,                                   ! Daily Dry-Bulb Temperature Range {deltaC}
  71600,                                  ! Humidity Indicating Conditions at Maximum Dry-Bulb {BasedOnField A3}
  97063,                                  ! Barometric Pressure {Pa}
  6.2,                                    ! Wind Speed {m/s}
  170,                                    ! Wind Direction {deg}
  0,                                      ! Sky Clearness
  0,                                      ! Rain Indicator
  0,                                      ! Snow Indicator
  21,                                     ! Day of Month
  7,                                      ! Month
  SummerDesignDay,                        ! Day Type
  0,                                      ! Daylight Saving Time Indicator
  Enthalpy,                               ! Humidity Indicating Type
  ,                                       ! Humidity Indicating Day Schedule Name
  DefaultMultipliers,                     ! Dry-Bulb Temperature Range Modifier Type
  ,                                       ! Dry-Bulb Temperature Range Modifier Schedule Name
  ASHRAETau,                              ! Solar Model Indicator
  ,                                       ! Beam Solar Day Schedule Name
  ,                                       ! Diffuse Solar Day Schedule Name
  0.393,                                  ! ASHRAE Taub {dimensionless}
  2.26;                                   ! ASHRAE Taud {dimensionless}

OS:ComponentData,
  {f82af21d-74c2-4ced-8d81-c56ba0e1f136}, ! Handle
  Component Data 1,                       ! Name
  {7b8eaeeb-8fa9-4b8f-b3ae-01bcbd0eef66}, ! UUID
  {699d73bc-4b5e-41b7-99b4-6caa13278641}, ! Version UUID
  1366308234,                             ! Creation Timestamp
  1366308234,                             ! Version Timestamp
  {9f755dbc-c1b1-49be-84b5-d11d4ddcec03}; ! Name of Object 1

