
OS:Version,
  {92c98380-ed34-4fb6-8597-48039607b489}, ! Handle
  0.9.3;                                  ! Version Identifier

OS:SizingPeriod:DesignDay,
  {8a92a02a-67e7-45fc-b782-b2c1e3e62c30}, ! Handle
  Burlington Ann Clg 2% Condns DP=>MDB,   ! Name
  24.2,                                   ! Maximum Dry-Bulb Temperature {C}
  10.7,                                   ! Daily Dry-Bulb Temperature Range {deltaC}
  19.8,                                   ! Humidity Indicating Conditions at Maximum Dry-Bulb {BasedOnField A3}
  100082,                                 ! Barometric Pressure {Pa}
  4.5,                                    ! Wind Speed {m/s}
  170,                                    ! Wind Direction {deg}
  0,                                      ! Sky Clearness
  0,                                      ! Rain Indicator
  0,                                      ! Snow Indicator
  21,                                     ! Day of Month
  7,                                      ! Month
  SummerDesignDay,                        ! Day Type
  0,                                      ! Daylight Saving Time Indicator
  Dewpoint,                               ! Humidity Indicating Type
  ,                                       ! Humidity Indicating Day Schedule Name
  DefaultMultipliers,                     ! Dry-Bulb Temperature Range Modifier Type
  ,                                       ! Dry-Bulb Temperature Range Modifier Schedule Name
  ASHRAETau,                              ! Solar Model Indicator
  ,                                       ! Beam Solar Day Schedule Name
  ,                                       ! Diffuse Solar Day Schedule Name
  0.459,                                  ! ASHRAE Taub {dimensionless}
  2.002;                                  ! ASHRAE Taud {dimensionless}

