
OS:Version,
  {8cd470e8-37c3-4cac-83cf-5ba871b2e261}, ! Handle
  0.9.3;                                  ! Version Identifier

OS:SizingPeriod:DesignDay,
  {516a7381-3a35-41d9-974d-4c3b5596148a}, ! Handle
  Abington Ann Clg 2% Condns Enth=>MDB,   ! Name
  26.7,                                   ! Maximum Dry-Bulb Temperature {C}
  10.4,                                   ! Daily Dry-Bulb Temperature Range {deltaC}
  70700,                                  ! Humidity Indicating Conditions at Maximum Dry-Bulb {BasedOnField A3}
  93971,                                  ! Barometric Pressure {Pa}
  2.1,                                    ! Wind Speed {m/s}
  260,                                    ! Wind Direction {deg}
  0,                                      ! Sky Clearness
  0,                                      ! Rain Indicator
  0,                                      ! Snow Indicator
  21,                                     ! Day of Month
  7,                                      ! Month
  SummerDesignDay,                        ! Day Type
  0,                                      ! Daylight Saving Time Indicator
  Enthalpy,                               ! Humidity Indicating Type
  ,                                       ! Humidity Indicating Day Schedule Name
  DefaultMultipliers,                     ! Dry-Bulb Temperature Range Modifier Type
  ,                                       ! Dry-Bulb Temperature Range Modifier Schedule Name
  ASHRAETau,                              ! Solar Model Indicator
  ,                                       ! Beam Solar Day Schedule Name
  ,                                       ! Diffuse Solar Day Schedule Name
  0.515,                                  ! ASHRAE Taub {dimensionless}
  1.841;                                  ! ASHRAE Taud {dimensionless}

OS:ComponentData,
  {2c6f373b-969e-4839-81c9-0a1359de3e9c}, ! Handle
  Component Data 1,                       ! Name
  {c1c8a4fb-d421-4c39-88ef-5971a8da7a8d}, ! UUID
  {05f94104-ad36-49c2-aab4-29f90b8fd266}, ! Version UUID
  1366311015,                             ! Creation Timestamp
  1366311015,                             ! Version Timestamp
  {516a7381-3a35-41d9-974d-4c3b5596148a}; ! Name of Object 1

