
OS:Version,
  {34d61d92-9249-4e72-83c0-2461b02c3109}, ! Handle
  0.9.3;                                  ! Version Identifier

OS:SizingPeriod:DesignDay,
  {827e4341-a3a2-4d63-acb3-a5e32d869c33}, ! Handle
  La Crosse Municipal Arpt Ann Clg 1% Condns WB=>MDB, ! Name
  29.4,                                   ! Maximum Dry-Bulb Temperature {C}
  11.1,                                   ! Daily Dry-Bulb Temperature Range {deltaC}
  24.4,                                   ! Humidity Indicating Conditions at Maximum Dry-Bulb {BasedOnField A3}
  98969,                                  ! Barometric Pressure {Pa}
  5.4,                                    ! Wind Speed {m/s}
  180,                                    ! Wind Direction {deg}
  0,                                      ! Sky Clearness
  0,                                      ! Rain Indicator
  0,                                      ! Snow Indicator
  21,                                     ! Day of Month
  7,                                      ! Month
  SummerDesignDay,                        ! Day Type
  0,                                      ! Daylight Saving Time Indicator
  Wetbulb,                                ! Humidity Indicating Type
  ,                                       ! Humidity Indicating Day Schedule Name
  DefaultMultipliers,                     ! Dry-Bulb Temperature Range Modifier Type
  ,                                       ! Dry-Bulb Temperature Range Modifier Schedule Name
  ASHRAETau,                              ! Solar Model Indicator
  ,                                       ! Beam Solar Day Schedule Name
  ,                                       ! Diffuse Solar Day Schedule Name
  0.431,                                  ! ASHRAE Taub {dimensionless}
  2.126;                                  ! ASHRAE Taud {dimensionless}

OS:ComponentData,
  {74df5fcf-0daf-404d-b457-c080144a1305}, ! Handle
  Component Data 1,                       ! Name
  {f9efb703-9725-4e58-a69b-4b8a4f53bbac}, ! UUID
  {50f75f8a-c3e0-4abb-8ad5-39cf1e299b15}, ! Version UUID
  1366311514,                             ! Creation Timestamp
  1366311514,                             ! Version Timestamp
  {827e4341-a3a2-4d63-acb3-a5e32d869c33}; ! Name of Object 1

