
OS:Version,
  {eaba3afa-10c8-48bb-8b71-df5ca60fed5b}, ! Handle
  0.9.3;                                  ! Version Identifier

OS:SizingPeriod:DesignDay,
  {b146d249-0b33-4813-95e0-44486dcaccf8}, ! Handle
  Hastings Municipal Ann Hum_n 99.6% Condns DP=>MCDB, ! Name
  -18.1,                                  ! Maximum Dry-Bulb Temperature {C}
  0,                                      ! Daily Dry-Bulb Temperature Range {deltaC}
  -23,                                    ! Humidity Indicating Conditions at Maximum Dry-Bulb {BasedOnField A3}
  94367,                                  ! Barometric Pressure {Pa}
  4.6,                                    ! Wind Speed {m/s}
  340,                                    ! Wind Direction {deg}
  0,                                      ! Sky Clearness
  0,                                      ! Rain Indicator
  0,                                      ! Snow Indicator
  21,                                     ! Day of Month
  1,                                      ! Month
  WinterDesignDay,                        ! Day Type
  0,                                      ! Daylight Saving Time Indicator
  Dewpoint,                               ! Humidity Indicating Type
  ,                                       ! Humidity Indicating Day Schedule Name
  DefaultMultipliers,                     ! Dry-Bulb Temperature Range Modifier Type
  ,                                       ! Dry-Bulb Temperature Range Modifier Schedule Name
  ASHRAEClearSky;                         ! Solar Model Indicator

