
OS:Version,
  {57f9adce-1493-48fa-94b8-91b4fc021270}, ! Handle
  0.9.3;                                  ! Version Identifier

OS:SizingPeriod:DesignDay,
  {cca5c1c4-16a3-4043-8a23-f5876ff52afe}, ! Handle
  Cape Hatteras Ann Hum_n 99% Condns DP=>MCDB, ! Name
  1.8,                                    ! Maximum Dry-Bulb Temperature {C}
  0,                                      ! Daily Dry-Bulb Temperature Range {deltaC}
  -9.4,                                   ! Humidity Indicating Conditions at Maximum Dry-Bulb {BasedOnField A3}
  101289,                                 ! Barometric Pressure {Pa}
  3.9,                                    ! Wind Speed {m/s}
  0,                                      ! Wind Direction {deg}
  0,                                      ! Sky Clearness
  0,                                      ! Rain Indicator
  0,                                      ! Snow Indicator
  21,                                     ! Day of Month
  1,                                      ! Month
  WinterDesignDay,                        ! Day Type
  0,                                      ! Daylight Saving Time Indicator
  Dewpoint,                               ! Humidity Indicating Type
  ,                                       ! Humidity Indicating Day Schedule Name
  DefaultMultipliers,                     ! Dry-Bulb Temperature Range Modifier Type
  ,                                       ! Dry-Bulb Temperature Range Modifier Schedule Name
  ASHRAEClearSky;                         ! Solar Model Indicator

OS:ComponentData,
  {a00c7be4-7890-4677-b845-1588db5a0ae6}, ! Handle
  Component Data 1,                       ! Name
  {beca2da7-a01e-4c01-9d40-6c67fa8be4b7}, ! UUID
  {9a092d83-6e69-419d-8f81-41dc3f5cba5c}, ! Version UUID
  1366308872,                             ! Creation Timestamp
  1366308872,                             ! Version Timestamp
  {cca5c1c4-16a3-4043-8a23-f5876ff52afe}; ! Name of Object 1

