
OS:Version,
  {b5d84583-cb55-4ab9-8aff-bb3b4c7a66c0}, ! Handle
  0.9.3;                                  ! Version Identifier

OS:SizingPeriod:DesignDay,
  {c5957194-a1a1-4672-a7f5-46d933c717d1}, ! Handle
  Chippewa Co Intl Ann Clg .4% Condns WB=>MDB, ! Name
  27,                                     ! Maximum Dry-Bulb Temperature {C}
  10.6,                                   ! Daily Dry-Bulb Temperature Range {deltaC}
  22,                                     ! Humidity Indicating Conditions at Maximum Dry-Bulb {BasedOnField A3}
  98358,                                  ! Barometric Pressure {Pa}
  4.1,                                    ! Wind Speed {m/s}
  240,                                    ! Wind Direction {deg}
  0,                                      ! Sky Clearness
  0,                                      ! Rain Indicator
  0,                                      ! Snow Indicator
  21,                                     ! Day of Month
  7,                                      ! Month
  SummerDesignDay,                        ! Day Type
  0,                                      ! Daylight Saving Time Indicator
  Wetbulb,                                ! Humidity Indicating Type
  ,                                       ! Humidity Indicating Day Schedule Name
  DefaultMultipliers,                     ! Dry-Bulb Temperature Range Modifier Type
  ,                                       ! Dry-Bulb Temperature Range Modifier Schedule Name
  ASHRAETau,                              ! Solar Model Indicator
  ,                                       ! Beam Solar Day Schedule Name
  ,                                       ! Diffuse Solar Day Schedule Name
  0.41,                                   ! ASHRAE Taub {dimensionless}
  2.2;                                    ! ASHRAE Taud {dimensionless}

OS:ComponentData,
  {16af05ef-00f4-4f0f-9722-3261f01462f6}, ! Handle
  Component Data 1,                       ! Name
  {d394f3ef-55ba-41ef-acaf-a5aba344708c}, ! UUID
  {24ba8b48-c9e0-4cec-9be3-f634464b9c06}, ! Version UUID
  1366307968,                             ! Creation Timestamp
  1366307968,                             ! Version Timestamp
  {c5957194-a1a1-4672-a7f5-46d933c717d1}; ! Name of Object 1

