
OS:Version,
  {022a1a55-448c-4791-a42f-af7455760426}, ! Handle
  0.9.3;                                  ! Version Identifier

OS:SizingPeriod:DesignDay,
  {e1d79601-d7ad-4915-a012-ebf2ea33bd07}, ! Handle
  Camarillo  Awos Ann Clg 1% Condns Enth=>MDB, ! Name
  25.2,                                   ! Maximum Dry-Bulb Temperature {C}
  9.7,                                    ! Daily Dry-Bulb Temperature Range {deltaC}
  57400,                                  ! Humidity Indicating Conditions at Maximum Dry-Bulb {BasedOnField A3}
  101049,                                 ! Barometric Pressure {Pa}
  5.8,                                    ! Wind Speed {m/s}
  60,                                     ! Wind Direction {deg}
  0,                                      ! Sky Clearness
  0,                                      ! Rain Indicator
  0,                                      ! Snow Indicator
  21,                                     ! Day of Month
  8,                                      ! Month
  SummerDesignDay,                        ! Day Type
  0,                                      ! Daylight Saving Time Indicator
  Enthalpy,                               ! Humidity Indicating Type
  ,                                       ! Humidity Indicating Day Schedule Name
  DefaultMultipliers,                     ! Dry-Bulb Temperature Range Modifier Type
  ,                                       ! Dry-Bulb Temperature Range Modifier Schedule Name
  ASHRAETau,                              ! Solar Model Indicator
  ,                                       ! Beam Solar Day Schedule Name
  ,                                       ! Diffuse Solar Day Schedule Name
  0.428,                                  ! ASHRAE Taub {dimensionless}
  2.187;                                  ! ASHRAE Taud {dimensionless}

OS:ComponentData,
  {509fd0f8-95d8-49a0-b5d1-183b94362752}, ! Handle
  Component Data 1,                       ! Name
  {98b3a69e-a730-410c-a49c-dbef56585247}, ! UUID
  {c495ec30-a58a-4ea4-8637-23e685e61407}, ! Version UUID
  1366306397,                             ! Creation Timestamp
  1366306397,                             ! Version Timestamp
  {e1d79601-d7ad-4915-a012-ebf2ea33bd07}; ! Name of Object 1

