
OS:Version,
  {8808eef2-7586-4783-b40f-40a29c7e77a3}, ! Handle
  0.9.3;                                  ! Version Identifier

OS:SizingPeriod:DesignDay,
  {a7b8bf88-7fed-4c7a-8eeb-141d518303e0}, ! Handle
  Columbia Ann Clg .4% Condns DP=>MDB,    ! Name
  27.8,                                   ! Maximum Dry-Bulb Temperature {C}
  11.1,                                   ! Daily Dry-Bulb Temperature Range {deltaC}
  24.2,                                   ! Humidity Indicating Conditions at Maximum Dry-Bulb {BasedOnField A3}
  100499,                                 ! Barometric Pressure {Pa}
  3.9,                                    ! Wind Speed {m/s}
  240,                                    ! Wind Direction {deg}
  0,                                      ! Sky Clearness
  0,                                      ! Rain Indicator
  0,                                      ! Snow Indicator
  21,                                     ! Day of Month
  7,                                      ! Month
  SummerDesignDay,                        ! Day Type
  0,                                      ! Daylight Saving Time Indicator
  Dewpoint,                               ! Humidity Indicating Type
  ,                                       ! Humidity Indicating Day Schedule Name
  DefaultMultipliers,                     ! Dry-Bulb Temperature Range Modifier Type
  ,                                       ! Dry-Bulb Temperature Range Modifier Schedule Name
  ASHRAETau,                              ! Solar Model Indicator
  ,                                       ! Beam Solar Day Schedule Name
  ,                                       ! Diffuse Solar Day Schedule Name
  0.566,                                  ! ASHRAE Taub {dimensionless}
  1.764;                                  ! ASHRAE Taud {dimensionless}

OS:ComponentData,
  {112bd78e-7f37-4c15-bf28-28823d23a94f}, ! Handle
  Component Data 1,                       ! Name
  {4ba619a1-8ed7-426e-ab9e-d7115505359a}, ! UUID
  {200e4a5a-7074-4c2c-bd4e-c9c973273757}, ! Version UUID
  1366310344,                             ! Creation Timestamp
  1366310344,                             ! Version Timestamp
  {a7b8bf88-7fed-4c7a-8eeb-141d518303e0}; ! Name of Object 1

