
OS:Version,
  {2af29390-b712-4c92-b426-476e96ebba9a}, ! Handle
  0.9.3;                                  ! Version Identifier

OS:SizingPeriod:DesignDay,
  {5f825587-6410-466f-8b9b-af6aaf147019}, ! Handle
  Chattanooga Lovell Field Ap Ann Clg 1% Condns DB=>MWB, ! Name
  33.4,                                   ! Maximum Dry-Bulb Temperature {C}
  10.6,                                   ! Daily Dry-Bulb Temperature Range {deltaC}
  23.7,                                   ! Humidity Indicating Conditions at Maximum Dry-Bulb {BasedOnField A3}
  98898,                                  ! Barometric Pressure {Pa}
  3.2,                                    ! Wind Speed {m/s}
  280,                                    ! Wind Direction {deg}
  0,                                      ! Sky Clearness
  0,                                      ! Rain Indicator
  0,                                      ! Snow Indicator
  21,                                     ! Day of Month
  7,                                      ! Month
  SummerDesignDay,                        ! Day Type
  0,                                      ! Daylight Saving Time Indicator
  Wetbulb,                                ! Humidity Indicating Type
  ,                                       ! Humidity Indicating Day Schedule Name
  DefaultMultipliers,                     ! Dry-Bulb Temperature Range Modifier Type
  ,                                       ! Dry-Bulb Temperature Range Modifier Schedule Name
  ASHRAETau,                              ! Solar Model Indicator
  ,                                       ! Beam Solar Day Schedule Name
  ,                                       ! Diffuse Solar Day Schedule Name
  0.562,                                  ! ASHRAE Taub {dimensionless}
  1.761;                                  ! ASHRAE Taud {dimensionless}

OS:ComponentData,
  {e403e6f6-79f9-45b0-ac8f-409fd92f7e11}, ! Handle
  Component Data 1,                       ! Name
  {aec829d7-672f-4691-ab3d-561906903005}, ! UUID
  {ed92423e-2640-4db7-a95b-ad74fe64f1a3}, ! Version UUID
  1366310488,                             ! Creation Timestamp
  1366310488,                             ! Version Timestamp
  {5f825587-6410-466f-8b9b-af6aaf147019}; ! Name of Object 1

