
OS:Version,
  {3f074d5f-c809-4dd9-8b80-02512bf53889}, ! Handle
  0.9.3;                                  ! Version Identifier

OS:SizingPeriod:DesignDay,
  {79864093-6270-4568-aca9-df8e4435e1c9}, ! Handle
  Beaumont/Port Arthur Ann Clg .4% Condns Enth=>MDB, ! Name
  31.7,                                   ! Maximum Dry-Bulb Temperature {C}
  8.9,                                    ! Daily Dry-Bulb Temperature Range {deltaC}
  87200,                                  ! Humidity Indicating Conditions at Maximum Dry-Bulb {BasedOnField A3}
  101241,                                 ! Barometric Pressure {Pa}
  3.6,                                    ! Wind Speed {m/s}
  200,                                    ! Wind Direction {deg}
  0,                                      ! Sky Clearness
  0,                                      ! Rain Indicator
  0,                                      ! Snow Indicator
  21,                                     ! Day of Month
  7,                                      ! Month
  SummerDesignDay,                        ! Day Type
  0,                                      ! Daylight Saving Time Indicator
  Enthalpy,                               ! Humidity Indicating Type
  ,                                       ! Humidity Indicating Day Schedule Name
  DefaultMultipliers,                     ! Dry-Bulb Temperature Range Modifier Type
  ,                                       ! Dry-Bulb Temperature Range Modifier Schedule Name
  ASHRAETau,                              ! Solar Model Indicator
  ,                                       ! Beam Solar Day Schedule Name
  ,                                       ! Diffuse Solar Day Schedule Name
  0.515,                                  ! ASHRAE Taub {dimensionless}
  1.943;                                  ! ASHRAE Taud {dimensionless}

OS:ComponentData,
  {05999587-dd67-495d-8244-43197ef1c26b}, ! Handle
  Component Data 1,                       ! Name
  {d2327a4d-85d5-4c93-88fe-56e55172e702}, ! UUID
  {bd728748-2133-449c-8fcb-fb1bd34ad49c}, ! Version UUID
  1366310850,                             ! Creation Timestamp
  1366310850,                             ! Version Timestamp
  {79864093-6270-4568-aca9-df8e4435e1c9}; ! Name of Object 1

