
OS:Version,
  {612a5c92-c70d-4079-8833-949df4b99036}, ! Handle
  0.9.3;                                  ! Version Identifier

OS:SizingPeriod:DesignDay,
  {7fc31d08-2b93-4d20-aa44-909871151672}, ! Handle
  Erie Ann Clg 2% Condns Enth=>MDB,       ! Name
  26.4,                                   ! Maximum Dry-Bulb Temperature {C}
  8.3,                                    ! Daily Dry-Bulb Temperature Range {deltaC}
  67000,                                  ! Humidity Indicating Conditions at Maximum Dry-Bulb {BasedOnField A3}
  98651,                                  ! Barometric Pressure {Pa}
  5,                                      ! Wind Speed {m/s}
  260,                                    ! Wind Direction {deg}
  0,                                      ! Sky Clearness
  0,                                      ! Rain Indicator
  0,                                      ! Snow Indicator
  21,                                     ! Day of Month
  7,                                      ! Month
  SummerDesignDay,                        ! Day Type
  0,                                      ! Daylight Saving Time Indicator
  Enthalpy,                               ! Humidity Indicating Type
  ,                                       ! Humidity Indicating Day Schedule Name
  DefaultMultipliers,                     ! Dry-Bulb Temperature Range Modifier Type
  ,                                       ! Dry-Bulb Temperature Range Modifier Schedule Name
  ASHRAETau,                              ! Solar Model Indicator
  ,                                       ! Beam Solar Day Schedule Name
  ,                                       ! Diffuse Solar Day Schedule Name
  0.455,                                  ! ASHRAE Taub {dimensionless}
  2.041;                                  ! ASHRAE Taud {dimensionless}

OS:ComponentData,
  {36fb2b16-4cae-438d-b0b2-d26f765f2619}, ! Handle
  Component Data 1,                       ! Name
  {faaaeaca-ec86-43be-a345-0349ac069635}, ! UUID
  {96d0fd03-cddd-4931-ba61-e6f6e833d518}, ! Version UUID
  1366310171,                             ! Creation Timestamp
  1366310171,                             ! Version Timestamp
  {7fc31d08-2b93-4d20-aa44-909871151672}; ! Name of Object 1

