
OS:Version,
  {543ee7fd-b9d8-498a-b364-b57f5f16712a}, ! Handle
  0.9.3;                                  ! Version Identifier

OS:SizingPeriod:DesignDay,
  {9bcd619d-d4ab-4c3b-ba41-8194f178fece}, ! Handle
  BINGHAMTON Ann Clg .4% Condns Enth=>MDB, ! Name
  27.2,                                   ! Maximum Dry-Bulb Temperature {C}
  9.7,                                    ! Daily Dry-Bulb Temperature Range {deltaC}
  68900,                                  ! Humidity Indicating Conditions at Maximum Dry-Bulb {BasedOnField A3}
  95472,                                  ! Barometric Pressure {Pa}
  4.6,                                    ! Wind Speed {m/s}
  240,                                    ! Wind Direction {deg}
  0,                                      ! Sky Clearness
  0,                                      ! Rain Indicator
  0,                                      ! Snow Indicator
  21,                                     ! Day of Month
  7,                                      ! Month
  SummerDesignDay,                        ! Day Type
  0,                                      ! Daylight Saving Time Indicator
  Enthalpy,                               ! Humidity Indicating Type
  ,                                       ! Humidity Indicating Day Schedule Name
  DefaultMultipliers,                     ! Dry-Bulb Temperature Range Modifier Type
  ,                                       ! Dry-Bulb Temperature Range Modifier Schedule Name
  ASHRAETau,                              ! Solar Model Indicator
  ,                                       ! Beam Solar Day Schedule Name
  ,                                       ! Diffuse Solar Day Schedule Name
  0.452,                                  ! ASHRAE Taub {dimensionless}
  2.004;                                  ! ASHRAE Taud {dimensionless}

OS:ComponentData,
  {b1196c42-e3e3-46c3-9358-df50420cea01}, ! Handle
  Component Data 1,                       ! Name
  {31063c79-0016-4894-953f-61e282d3f53a}, ! UUID
  {e9b25766-29a1-471e-956d-58e38154ded1}, ! Version UUID
  1366309600,                             ! Creation Timestamp
  1366309600,                             ! Version Timestamp
  {9bcd619d-d4ab-4c3b-ba41-8194f178fece}; ! Name of Object 1

