
OS:Version,
  {d7c1156e-c3b8-4fa6-8ce4-08cdea08dc03}, ! Handle
  0.9.3;                                  ! Version Identifier

OS:SizingPeriod:DesignDay,
  {981b1b86-a4c5-4144-8a1f-14386cf0bfeb}, ! Handle
  Fort Lauderdale Hollywood Int Ann Htg 99.6% Condns DB, ! Name
  8.2,                                    ! Maximum Dry-Bulb Temperature {C}
  0,                                      ! Daily Dry-Bulb Temperature Range {deltaC}
  8.2,                                    ! Humidity Indicating Conditions at Maximum Dry-Bulb {BasedOnField A3}
  101289,                                 ! Barometric Pressure {Pa}
  4,                                      ! Wind Speed {m/s}
  320,                                    ! Wind Direction {deg}
  0,                                      ! Sky Clearness
  0,                                      ! Rain Indicator
  0,                                      ! Snow Indicator
  21,                                     ! Day of Month
  1,                                      ! Month
  WinterDesignDay,                        ! Day Type
  0,                                      ! Daylight Saving Time Indicator
  Wetbulb,                                ! Humidity Indicating Type
  ,                                       ! Humidity Indicating Day Schedule Name
  DefaultMultipliers,                     ! Dry-Bulb Temperature Range Modifier Type
  ,                                       ! Dry-Bulb Temperature Range Modifier Schedule Name
  ASHRAEClearSky;                         ! Solar Model Indicator

OS:ComponentData,
  {f820c6f8-92ca-4df9-8a0f-6935aa393cc3}, ! Handle
  Component Data 1,                       ! Name
  {98c4831a-1410-4f51-a7b8-a7b139ecdc96}, ! UUID
  {4047cbaf-9133-4cd1-9f0c-ddc95f0d2bc8}, ! Version UUID
  1366306796,                             ! Creation Timestamp
  1366306796,                             ! Version Timestamp
  {981b1b86-a4c5-4144-8a1f-14386cf0bfeb}; ! Name of Object 1

