
OS:Version,
  {8aed79ad-d7b7-47c4-87d4-78b4cbceee53}, ! Handle
  0.9.3;                                  ! Version Identifier

OS:SizingPeriod:DesignDay,
  {1abbcfe4-7fe6-46cb-9797-08d0bebc8be2}, ! Handle
  Harrisburg Ann Htg Wind 99.6% Condns WS=>MCDB, ! Name
  -1.1,                                   ! Maximum Dry-Bulb Temperature {C}
  0,                                      ! Daily Dry-Bulb Temperature Range {deltaC}
  -1.1,                                   ! Humidity Indicating Conditions at Maximum Dry-Bulb {BasedOnField A3}
  100201,                                 ! Barometric Pressure {Pa}
  11.1,                                   ! Wind Speed {m/s}
  270,                                    ! Wind Direction {deg}
  0,                                      ! Sky Clearness
  0,                                      ! Rain Indicator
  0,                                      ! Snow Indicator
  21,                                     ! Day of Month
  1,                                      ! Month
  WinterDesignDay,                        ! Day Type
  0,                                      ! Daylight Saving Time Indicator
  Wetbulb,                                ! Humidity Indicating Type
  ,                                       ! Humidity Indicating Day Schedule Name
  DefaultMultipliers,                     ! Dry-Bulb Temperature Range Modifier Type
  ,                                       ! Dry-Bulb Temperature Range Modifier Schedule Name
  ASHRAEClearSky;                         ! Solar Model Indicator

OS:ComponentData,
  {43219d79-7268-4de4-bef3-3a3e3bbd2299}, ! Handle
  Component Data 1,                       ! Name
  {c58c01d8-43aa-4208-a1ba-7957a64de28f}, ! UUID
  {12dfa5f4-005c-43c0-b74a-76b38d72d2e0}, ! Version UUID
  1366310182,                             ! Creation Timestamp
  1366310182,                             ! Version Timestamp
  {1abbcfe4-7fe6-46cb-9797-08d0bebc8be2}; ! Name of Object 1

