
OS:Version,
  {eff9cdd2-6eb5-4fa2-bdaa-a66b47125684}, ! Handle
  0.9.3;                                  ! Version Identifier

OS:SizingPeriod:DesignDay,
  {4e690e3a-7475-4b5c-9d9f-956c672d7135}, ! Handle
  Kingman  Amos Ann Htg 99% Condns DB,    ! Name
  -2.7,                                   ! Maximum Dry-Bulb Temperature {C}
  0,                                      ! Daily Dry-Bulb Temperature Range {deltaC}
  -2.7,                                   ! Humidity Indicating Conditions at Maximum Dry-Bulb {BasedOnField A3}
  89515,                                  ! Barometric Pressure {Pa}
  2.3,                                    ! Wind Speed {m/s}
  90,                                     ! Wind Direction {deg}
  0,                                      ! Sky Clearness
  0,                                      ! Rain Indicator
  0,                                      ! Snow Indicator
  21,                                     ! Day of Month
  12,                                     ! Month
  WinterDesignDay,                        ! Day Type
  0,                                      ! Daylight Saving Time Indicator
  Wetbulb,                                ! Humidity Indicating Type
  ,                                       ! Humidity Indicating Day Schedule Name
  DefaultMultipliers,                     ! Dry-Bulb Temperature Range Modifier Type
  ,                                       ! Dry-Bulb Temperature Range Modifier Schedule Name
  ASHRAEClearSky;                         ! Solar Model Indicator

OS:ComponentData,
  {e4e6eb77-b1ca-4a73-a78a-92790b203a2b}, ! Handle
  Component Data 1,                       ! Name
  {762de94e-5836-4d74-b946-e0529b844f46}, ! UUID
  {69aeff36-5dfb-4c91-86fe-36940eca4f32}, ! Version UUID
  1366306280,                             ! Creation Timestamp
  1366306280,                             ! Version Timestamp
  {4e690e3a-7475-4b5c-9d9f-956c672d7135}; ! Name of Object 1

