
OS:Version,
  {45e9b5a7-02e1-4d30-85fb-dec76bb30b29}, ! Handle
  0.9.3;                                  ! Version Identifier

OS:SizingPeriod:DesignDay,
  {6344bd73-e8d3-4dcf-9d32-fee9a8597e44}, ! Handle
  Akron Washington Co Ap Ann Clg .4% Condns Enth=>MDB, ! Name
  28.1,                                   ! Maximum Dry-Bulb Temperature {C}
  14.3,                                   ! Daily Dry-Bulb Temperature Range {deltaC}
  64500,                                  ! Humidity Indicating Conditions at Maximum Dry-Bulb {BasedOnField A3}
  85379,                                  ! Barometric Pressure {Pa}
  5.1,                                    ! Wind Speed {m/s}
  130,                                    ! Wind Direction {deg}
  0,                                      ! Sky Clearness
  0,                                      ! Rain Indicator
  0,                                      ! Snow Indicator
  21,                                     ! Day of Month
  7,                                      ! Month
  SummerDesignDay,                        ! Day Type
  0,                                      ! Daylight Saving Time Indicator
  Enthalpy,                               ! Humidity Indicating Type
  ,                                       ! Humidity Indicating Day Schedule Name
  DefaultMultipliers,                     ! Dry-Bulb Temperature Range Modifier Type
  ,                                       ! Dry-Bulb Temperature Range Modifier Schedule Name
  ASHRAETau,                              ! Solar Model Indicator
  ,                                       ! Beam Solar Day Schedule Name
  ,                                       ! Diffuse Solar Day Schedule Name
  0.414,                                  ! ASHRAE Taub {dimensionless}
  2.041;                                  ! ASHRAE Taud {dimensionless}

OS:ComponentData,
  {4f572688-cc42-498e-a72b-061cd53f2ab7}, ! Handle
  Component Data 1,                       ! Name
  {841cd9da-101f-43a6-a070-e8a8b739aa2d}, ! UUID
  {4e6e159b-33fe-487f-a65d-0ea560b7928d}, ! Version UUID
  1366306636,                             ! Creation Timestamp
  1366306636,                             ! Version Timestamp
  {6344bd73-e8d3-4dcf-9d32-fee9a8597e44}; ! Name of Object 1

