
OS:Version,
  {6ac941bd-be88-4e6b-af5e-0dcdd3d90f46}, ! Handle
  0.9.3;                                  ! Version Identifier

OS:SizingPeriod:DesignDay,
  {013602b5-719e-416d-855c-61828a2c67fa}, ! Handle
  Bluefield Mercer Co  Nrel Ann Clg .4% Condns WB=>MDB, ! Name
  26.7,                                   ! Maximum Dry-Bulb Temperature {C}
  8.6,                                    ! Daily Dry-Bulb Temperature Range {deltaC}
  22.1,                                   ! Humidity Indicating Conditions at Maximum Dry-Bulb {BasedOnField A3}
  92043,                                  ! Barometric Pressure {Pa}
  2.4,                                    ! Wind Speed {m/s}
  270,                                    ! Wind Direction {deg}
  0,                                      ! Sky Clearness
  0,                                      ! Rain Indicator
  0,                                      ! Snow Indicator
  21,                                     ! Day of Month
  7,                                      ! Month
  SummerDesignDay,                        ! Day Type
  0,                                      ! Daylight Saving Time Indicator
  Wetbulb,                                ! Humidity Indicating Type
  ,                                       ! Humidity Indicating Day Schedule Name
  DefaultMultipliers,                     ! Dry-Bulb Temperature Range Modifier Type
  ,                                       ! Dry-Bulb Temperature Range Modifier Schedule Name
  ASHRAETau,                              ! Solar Model Indicator
  ,                                       ! Beam Solar Day Schedule Name
  ,                                       ! Diffuse Solar Day Schedule Name
  0.476,                                  ! ASHRAE Taub {dimensionless}
  1.931;                                  ! ASHRAE Taud {dimensionless}

OS:ComponentData,
  {e655ee77-0d66-4936-b502-d4e728e889cd}, ! Handle
  Component Data 1,                       ! Name
  {2f8f34f2-9cf7-4293-afd9-83dbf23ef1ae}, ! UUID
  {9c2eb09b-a66a-43ce-a0b6-5d7da41c0af1}, ! Version UUID
  1366311615,                             ! Creation Timestamp
  1366311615,                             ! Version Timestamp
  {013602b5-719e-416d-855c-61828a2c67fa}; ! Name of Object 1

