
OS:Version,
  {3429e45d-8608-467e-a40b-7620cb94379a}, ! Handle
  0.9.3;                                  ! Version Identifier

OS:SizingPeriod:DesignDay,
  {7824b924-eccc-4fdb-ad60-fdd11e7273b2}, ! Handle
  Hartford/Brainard Fiel Ann Htg 99% Condns DB, ! Name
  -13.3,                                  ! Maximum Dry-Bulb Temperature {C}
  0,                                      ! Daily Dry-Bulb Temperature Range {deltaC}
  -13.3,                                  ! Humidity Indicating Conditions at Maximum Dry-Bulb {BasedOnField A3}
  101253,                                 ! Barometric Pressure {Pa}
  3.3,                                    ! Wind Speed {m/s}
  330,                                    ! Wind Direction {deg}
  0,                                      ! Sky Clearness
  0,                                      ! Rain Indicator
  0,                                      ! Snow Indicator
  21,                                     ! Day of Month
  1,                                      ! Month
  WinterDesignDay,                        ! Day Type
  0,                                      ! Daylight Saving Time Indicator
  Wetbulb,                                ! Humidity Indicating Type
  ,                                       ! Humidity Indicating Day Schedule Name
  DefaultMultipliers,                     ! Dry-Bulb Temperature Range Modifier Type
  ,                                       ! Dry-Bulb Temperature Range Modifier Schedule Name
  ASHRAEClearSky;                         ! Solar Model Indicator

OS:ComponentData,
  {d4ad1966-e94a-4101-bbf0-4dd6f7386b4c}, ! Handle
  Component Data 1,                       ! Name
  {3c3dde58-90d6-46ca-a1d4-c120db501f77}, ! UUID
  {e671371b-0de9-4932-a172-8c876f197582}, ! Version UUID
  1366306752,                             ! Creation Timestamp
  1366306752,                             ! Version Timestamp
  {7824b924-eccc-4fdb-ad60-fdd11e7273b2}; ! Name of Object 1

