
OS:Version,
  {2610249c-2c3c-43ea-9f12-aab2cd81fc9b}, ! Handle
  0.9.3;                                  ! Version Identifier

OS:SizingPeriod:DesignDay,
  {38ca345a-6c5b-4178-8890-b1ce2054b895}, ! Handle
  Dekalb Peachtree Ann Clg .4% Condns DB=>MWB, ! Name
  34,                                     ! Maximum Dry-Bulb Temperature {C}
  9.9,                                    ! Daily Dry-Bulb Temperature Range {deltaC}
  23,                                     ! Humidity Indicating Conditions at Maximum Dry-Bulb {BasedOnField A3}
  97621,                                  ! Barometric Pressure {Pa}
  3.3,                                    ! Wind Speed {m/s}
  330,                                    ! Wind Direction {deg}
  0,                                      ! Sky Clearness
  0,                                      ! Rain Indicator
  0,                                      ! Snow Indicator
  21,                                     ! Day of Month
  7,                                      ! Month
  SummerDesignDay,                        ! Day Type
  0,                                      ! Daylight Saving Time Indicator
  Wetbulb,                                ! Humidity Indicating Type
  ,                                       ! Humidity Indicating Day Schedule Name
  DefaultMultipliers,                     ! Dry-Bulb Temperature Range Modifier Type
  ,                                       ! Dry-Bulb Temperature Range Modifier Schedule Name
  ASHRAETau,                              ! Solar Model Indicator
  ,                                       ! Beam Solar Day Schedule Name
  ,                                       ! Diffuse Solar Day Schedule Name
  0.554,                                  ! ASHRAE Taub {dimensionless}
  1.783;                                  ! ASHRAE Taud {dimensionless}

OS:ComponentData,
  {379e683d-d424-458b-a8bc-f4036e00fce8}, ! Handle
  Component Data 1,                       ! Name
  {33aac420-67fd-40b3-a81f-57bbcced1c69}, ! UUID
  {c8b1cf67-0568-4441-8ece-000d40ae372e}, ! Version UUID
  1366307007,                             ! Creation Timestamp
  1366307007,                             ! Version Timestamp
  {38ca345a-6c5b-4178-8890-b1ce2054b895}; ! Name of Object 1

