
OS:Version,
  {c8460660-5bd9-4577-9d19-2c99109c4dbb}, ! Handle
  0.9.3;                                  ! Version Identifier

OS:SizingPeriod:DesignDay,
  {a782483e-20cb-44f8-9694-0f761e2e8105}, ! Handle
  Alice Intl Ap Ann Clg .4% Condns DP=>MDB, ! Name
  28.2,                                   ! Maximum Dry-Bulb Temperature {C}
  12,                                     ! Daily Dry-Bulb Temperature Range {deltaC}
  26.1,                                   ! Humidity Indicating Conditions at Maximum Dry-Bulb {BasedOnField A3}
  100690,                                 ! Barometric Pressure {Pa}
  5.5,                                    ! Wind Speed {m/s}
  140,                                    ! Wind Direction {deg}
  0,                                      ! Sky Clearness
  0,                                      ! Rain Indicator
  0,                                      ! Snow Indicator
  21,                                     ! Day of Month
  7,                                      ! Month
  SummerDesignDay,                        ! Day Type
  0,                                      ! Daylight Saving Time Indicator
  Dewpoint,                               ! Humidity Indicating Type
  ,                                       ! Humidity Indicating Day Schedule Name
  DefaultMultipliers,                     ! Dry-Bulb Temperature Range Modifier Type
  ,                                       ! Dry-Bulb Temperature Range Modifier Schedule Name
  ASHRAETau,                              ! Solar Model Indicator
  ,                                       ! Beam Solar Day Schedule Name
  ,                                       ! Diffuse Solar Day Schedule Name
  0.449,                                  ! ASHRAE Taub {dimensionless}
  2.159;                                  ! ASHRAE Taud {dimensionless}

OS:ComponentData,
  {ae96805f-73e8-485a-bf8a-62785e3aa78f}, ! Handle
  Component Data 1,                       ! Name
  {f213d4e7-79c8-4d7f-b047-1f08a59483ad}, ! UUID
  {af045d55-7f81-4167-baf9-6a566e104e27}, ! Version UUID
  1366310563,                             ! Creation Timestamp
  1366310563,                             ! Version Timestamp
  {a782483e-20cb-44f8-9694-0f761e2e8105}; ! Name of Object 1

