
OS:Version,
  {fcf56f6a-72f3-4661-8122-3037800aba3d}, ! Handle
  0.9.3;                                  ! Version Identifier

OS:SizingPeriod:DesignDay,
  {facb5bb3-d147-4bdc-a5c8-84ddc8abbf50}, ! Handle
  King Salmon Ann Hum_n 99% Condns DP=>MCDB, ! Name
  -27,                                    ! Maximum Dry-Bulb Temperature {C}
  0,                                      ! Daily Dry-Bulb Temperature Range {deltaC}
  -30.7,                                  ! Humidity Indicating Conditions at Maximum Dry-Bulb {BasedOnField A3}
  101145,                                 ! Barometric Pressure {Pa}
  2.4,                                    ! Wind Speed {m/s}
  10,                                     ! Wind Direction {deg}
  0,                                      ! Sky Clearness
  0,                                      ! Rain Indicator
  0,                                      ! Snow Indicator
  21,                                     ! Day of Month
  1,                                      ! Month
  WinterDesignDay,                        ! Day Type
  0,                                      ! Daylight Saving Time Indicator
  Dewpoint,                               ! Humidity Indicating Type
  ,                                       ! Humidity Indicating Day Schedule Name
  DefaultMultipliers,                     ! Dry-Bulb Temperature Range Modifier Type
  ,                                       ! Dry-Bulb Temperature Range Modifier Schedule Name
  ASHRAEClearSky;                         ! Solar Model Indicator

OS:ComponentData,
  {3d56ff51-36bd-450c-9297-5d9aa04d5d17}, ! Handle
  Component Data 1,                       ! Name
  {a33d266a-87d5-48cf-a81d-1652c73d3476}, ! UUID
  {77937752-52bc-41db-ad91-f2383d5a11b3}, ! Version UUID
  1366305362,                             ! Creation Timestamp
  1366305362,                             ! Version Timestamp
  {facb5bb3-d147-4bdc-a5c8-84ddc8abbf50}; ! Name of Object 1

