
OS:Version,
  {f7dc8662-3830-4b1f-b59c-0e34234d3fda}, ! Handle
  0.9.3;                                  ! Version Identifier

OS:SizingPeriod:DesignDay,
  {c7e6f09c-fde0-4e81-90ea-434339424cb9}, ! Handle
  Barrow W Post W Rogers Arpt Ann Htg Wind 99% Condns WS=>MCDB, ! Name
  -17.7,                                  ! Maximum Dry-Bulb Temperature {C}
  0,                                      ! Daily Dry-Bulb Temperature Range {deltaC}
  -17.7,                                  ! Humidity Indicating Conditions at Maximum Dry-Bulb {BasedOnField A3}
  101205,                                 ! Barometric Pressure {Pa}
  14.9,                                   ! Wind Speed {m/s}
  230,                                    ! Wind Direction {deg}
  0,                                      ! Sky Clearness
  0,                                      ! Rain Indicator
  0,                                      ! Snow Indicator
  21,                                     ! Day of Month
  2,                                      ! Month
  WinterDesignDay,                        ! Day Type
  0,                                      ! Daylight Saving Time Indicator
  Wetbulb,                                ! Humidity Indicating Type
  ,                                       ! Humidity Indicating Day Schedule Name
  DefaultMultipliers,                     ! Dry-Bulb Temperature Range Modifier Type
  ,                                       ! Dry-Bulb Temperature Range Modifier Schedule Name
  ASHRAEClearSky;                         ! Solar Model Indicator

OS:ComponentData,
  {2b94b37e-c969-4b81-9189-0959edeed335}, ! Handle
  Component Data 1,                       ! Name
  {8d9045e5-4efa-4fb6-a60a-7ba79e8985f3}, ! UUID
  {046085cf-3c6e-4959-a5e1-c9aef9afc023}, ! Version UUID
  1366304735,                             ! Creation Timestamp
  1366304735,                             ! Version Timestamp
  {c7e6f09c-fde0-4e81-90ea-434339424cb9}; ! Name of Object 1

