
OS:Version,
  {c8fbbcff-c9cf-4e7a-9ab1-ee645475fa5f}, ! Handle
  0.9.3;                                  ! Version Identifier

OS:SizingPeriod:DesignDay,
  {7aeebccb-3a5b-4fa7-b569-6e98eff0e68c}, ! Handle
  Hartford Brainard Fd Ann Htg 99.6% Condns DB, ! Name
  -14.2,                                  ! Maximum Dry-Bulb Temperature {C}
  0,                                      ! Daily Dry-Bulb Temperature Range {deltaC}
  -14.2,                                  ! Humidity Indicating Conditions at Maximum Dry-Bulb {BasedOnField A3}
  101253,                                 ! Barometric Pressure {Pa}
  4,                                      ! Wind Speed {m/s}
  320,                                    ! Wind Direction {deg}
  0,                                      ! Sky Clearness
  0,                                      ! Rain Indicator
  0,                                      ! Snow Indicator
  21,                                     ! Day of Month
  1,                                      ! Month
  WinterDesignDay,                        ! Day Type
  0,                                      ! Daylight Saving Time Indicator
  Wetbulb,                                ! Humidity Indicating Type
  ,                                       ! Humidity Indicating Day Schedule Name
  DefaultMultipliers,                     ! Dry-Bulb Temperature Range Modifier Type
  ,                                       ! Dry-Bulb Temperature Range Modifier Schedule Name
  ASHRAEClearSky;                         ! Solar Model Indicator

OS:ComponentData,
  {9e1c1616-3e7e-49aa-a0d4-9c1ff2cb18fa}, ! Handle
  Component Data 1,                       ! Name
  {284847c8-e611-42fa-ad80-33159fc41865}, ! UUID
  {6105d3bc-9098-4cf4-9b98-5d5f2b557c6e}, ! Version UUID
  1366306759,                             ! Creation Timestamp
  1366306759,                             ! Version Timestamp
  {7aeebccb-3a5b-4fa7-b569-6e98eff0e68c}; ! Name of Object 1

