
OS:Version,
  {ec16109e-cfcc-4588-97e6-33f186d0ac98}, ! Handle
  0.9.3;                                  ! Version Identifier

OS:SizingPeriod:DesignDay,
  {4176ed59-ebf3-4437-8bcc-24e0cec45e55}, ! Handle
  Brewster Field Arpt Ann Htg Wind 99.6% Condns WS=>MCDB, ! Name
  -0.8,                                   ! Maximum Dry-Bulb Temperature {C}
  0,                                      ! Daily Dry-Bulb Temperature Range {deltaC}
  -0.8,                                   ! Humidity Indicating Conditions at Maximum Dry-Bulb {BasedOnField A3}
  93149,                                  ! Barometric Pressure {Pa}
  13.9,                                   ! Wind Speed {m/s}
  350,                                    ! Wind Direction {deg}
  0,                                      ! Sky Clearness
  0,                                      ! Rain Indicator
  0,                                      ! Snow Indicator
  21,                                     ! Day of Month
  1,                                      ! Month
  WinterDesignDay,                        ! Day Type
  0,                                      ! Daylight Saving Time Indicator
  Wetbulb,                                ! Humidity Indicating Type
  ,                                       ! Humidity Indicating Day Schedule Name
  DefaultMultipliers,                     ! Dry-Bulb Temperature Range Modifier Type
  ,                                       ! Dry-Bulb Temperature Range Modifier Schedule Name
  ASHRAEClearSky;                         ! Solar Model Indicator

OS:ComponentData,
  {5a0405bb-27b2-4b11-b595-38c7123d46cc}, ! Handle
  Component Data 1,                       ! Name
  {665a63e7-8ee7-4ce1-b55b-8ca904386309}, ! UUID
  {4fc380d2-5f9b-4e0a-ad1a-87c68e7c42da}, ! Version UUID
  1366309129,                             ! Creation Timestamp
  1366309129,                             ! Version Timestamp
  {4176ed59-ebf3-4437-8bcc-24e0cec45e55}; ! Name of Object 1

