
OS:Version,
  {cc4622c2-28a4-48eb-bd7a-c83de7a3b7f5}, ! Handle
  0.9.3;                                  ! Version Identifier

OS:SizingPeriod:DesignDay,
  {e536323d-fd6f-4e80-943d-b309caf2c80f}, ! Handle
  Ely Yelland Field Ann Clg .4% Condns DP=>MDB, ! Name
  17.6,                                   ! Maximum Dry-Bulb Temperature {C}
  20.3,                                   ! Daily Dry-Bulb Temperature Range {deltaC}
  13.1,                                   ! Humidity Indicating Conditions at Maximum Dry-Bulb {BasedOnField A3}
  80397,                                  ! Barometric Pressure {Pa}
  5.3,                                    ! Wind Speed {m/s}
  220,                                    ! Wind Direction {deg}
  0,                                      ! Sky Clearness
  0,                                      ! Rain Indicator
  0,                                      ! Snow Indicator
  21,                                     ! Day of Month
  7,                                      ! Month
  SummerDesignDay,                        ! Day Type
  0,                                      ! Daylight Saving Time Indicator
  Dewpoint,                               ! Humidity Indicating Type
  ,                                       ! Humidity Indicating Day Schedule Name
  DefaultMultipliers,                     ! Dry-Bulb Temperature Range Modifier Type
  ,                                       ! Dry-Bulb Temperature Range Modifier Schedule Name
  ASHRAETau,                              ! Solar Model Indicator
  ,                                       ! Beam Solar Day Schedule Name
  ,                                       ! Diffuse Solar Day Schedule Name
  0.442,                                  ! ASHRAE Taub {dimensionless}
  1.871;                                  ! ASHRAE Taud {dimensionless}

OS:ComponentData,
  {d81663bc-4262-45f3-877d-3008344f0ffd}, ! Handle
  Component Data 1,                       ! Name
  {38bd63d7-d100-45b3-8d9e-0161c8f3b439}, ! UUID
  {b5c90f5e-2bb2-4355-8165-ab8925b2fd55}, ! Version UUID
  1366309477,                             ! Creation Timestamp
  1366309477,                             ! Version Timestamp
  {e536323d-fd6f-4e80-943d-b309caf2c80f}; ! Name of Object 1

