
OS:Version,
  {de57e6ea-9d7a-4f93-8887-2aedac5eb949}, ! Handle
  0.9.3;                                  ! Version Identifier

OS:SizingPeriod:DesignDay,
  {a50670ad-4193-4c1a-9491-82166a516b30}, ! Handle
  Adak NAS Ann Htg 99.6% Condns DB,       ! Name
  -6.4,                                   ! Maximum Dry-Bulb Temperature {C}
  0,                                      ! Daily Dry-Bulb Temperature Range {deltaC}
  -6.4,                                   ! Humidity Indicating Conditions at Maximum Dry-Bulb {BasedOnField A3}
  101265,                                 ! Barometric Pressure {Pa}
  2.1,                                    ! Wind Speed {m/s}
  200,                                    ! Wind Direction {deg}
  0,                                      ! Sky Clearness
  0,                                      ! Rain Indicator
  0,                                      ! Snow Indicator
  21,                                     ! Day of Month
  1,                                      ! Month
  WinterDesignDay,                        ! Day Type
  0,                                      ! Daylight Saving Time Indicator
  Wetbulb,                                ! Humidity Indicating Type
  ,                                       ! Humidity Indicating Day Schedule Name
  DefaultMultipliers,                     ! Dry-Bulb Temperature Range Modifier Type
  ,                                       ! Dry-Bulb Temperature Range Modifier Schedule Name
  ASHRAEClearSky;                         ! Solar Model Indicator

OS:ComponentData,
  {c8ea847f-a361-4108-bf2c-082b3bad6d5f}, ! Handle
  Component Data 1,                       ! Name
  {70cc8797-a795-48b3-b732-f5583709e004}, ! UUID
  {563cd1dc-027c-4299-9708-b868b6cd086b}, ! Version UUID
  1364004392,                             ! Creation Timestamp
  1364004392,                             ! Version Timestamp
  {a50670ad-4193-4c1a-9491-82166a516b30}; ! Name of Object 1

