
OS:Version,
  {3ceb6207-fd50-4814-af81-bc83884d951c}, ! Handle
  0.9.3;                                  ! Version Identifier

OS:SizingPeriod:DesignDay,
  {96a303ea-885a-454b-b407-93c5a4c112df}, ! Handle
  Ely Ann Clg .4% Condns DP=>MDB,         ! Name
  17.6,                                   ! Maximum Dry-Bulb Temperature {C}
  20.3,                                   ! Daily Dry-Bulb Temperature Range {deltaC}
  13.1,                                   ! Humidity Indicating Conditions at Maximum Dry-Bulb {BasedOnField A3}
  80397,                                  ! Barometric Pressure {Pa}
  5.3,                                    ! Wind Speed {m/s}
  220,                                    ! Wind Direction {deg}
  0,                                      ! Sky Clearness
  0,                                      ! Rain Indicator
  0,                                      ! Snow Indicator
  21,                                     ! Day of Month
  7,                                      ! Month
  SummerDesignDay,                        ! Day Type
  0,                                      ! Daylight Saving Time Indicator
  Dewpoint,                               ! Humidity Indicating Type
  ,                                       ! Humidity Indicating Day Schedule Name
  DefaultMultipliers,                     ! Dry-Bulb Temperature Range Modifier Type
  ,                                       ! Dry-Bulb Temperature Range Modifier Schedule Name
  ASHRAETau,                              ! Solar Model Indicator
  ,                                       ! Beam Solar Day Schedule Name
  ,                                       ! Diffuse Solar Day Schedule Name
  0.442,                                  ! ASHRAE Taub {dimensionless}
  1.871;                                  ! ASHRAE Taud {dimensionless}

OS:ComponentData,
  {970e6aaf-d50c-43b4-98db-be27b15ecf73}, ! Handle
  Component Data 1,                       ! Name
  {a678cd74-e17e-4758-9868-e1c698941402}, ! UUID
  {44c1bb6f-3d51-4bab-9bcf-e298b3240c46}, ! Version UUID
  1366309472,                             ! Creation Timestamp
  1366309472,                             ! Version Timestamp
  {96a303ea-885a-454b-b407-93c5a4c112df}; ! Name of Object 1

