
OS:Version,
  {37a6e31a-e5cf-429b-a94d-d6741f124159}, ! Handle
  0.9.3;                                  ! Version Identifier

OS:SizingPeriod:DesignDay,
  {df3b74e6-08cb-49a2-aa57-20b41a844575}, ! Handle
  Fort Drum Wheeler S Ann Clg 1% Condns Enth=>MDB, ! Name
  26.9,                                   ! Maximum Dry-Bulb Temperature {C}
  10.6,                                   ! Daily Dry-Bulb Temperature Range {deltaC}
  67500,                                  ! Humidity Indicating Conditions at Maximum Dry-Bulb {BasedOnField A3}
  98816,                                  ! Barometric Pressure {Pa}
  4.5,                                    ! Wind Speed {m/s}
  250,                                    ! Wind Direction {deg}
  0,                                      ! Sky Clearness
  0,                                      ! Rain Indicator
  0,                                      ! Snow Indicator
  21,                                     ! Day of Month
  7,                                      ! Month
  SummerDesignDay,                        ! Day Type
  0,                                      ! Daylight Saving Time Indicator
  Enthalpy,                               ! Humidity Indicating Type
  ,                                       ! Humidity Indicating Day Schedule Name
  DefaultMultipliers,                     ! Dry-Bulb Temperature Range Modifier Type
  ,                                       ! Dry-Bulb Temperature Range Modifier Schedule Name
  ASHRAETau,                              ! Solar Model Indicator
  ,                                       ! Beam Solar Day Schedule Name
  ,                                       ! Diffuse Solar Day Schedule Name
  0.449,                                  ! ASHRAE Taub {dimensionless}
  2.034;                                  ! ASHRAE Taud {dimensionless}

OS:ComponentData,
  {f012fffe-3d10-4b57-8ffb-bf555d91e29e}, ! Handle
  Component Data 1,                       ! Name
  {8f1a054c-2ece-4ce6-9870-a24f628fee68}, ! UUID
  {d9cee824-075d-4fa0-af9b-f98dc987cc67}, ! Version UUID
  1366309623,                             ! Creation Timestamp
  1366309623,                             ! Version Timestamp
  {df3b74e6-08cb-49a2-aa57-20b41a844575}; ! Name of Object 1

