
OS:Version,
  {a460a038-3c64-4e50-8fbe-de02efa0a295}, ! Handle
  0.9.3;                                  ! Version Identifier

OS:SizingPeriod:DesignDay,
  {36e4029d-499a-4eec-8eb9-cc2c7c1c17c0}, ! Handle
  Dekalb Peachtree Ann Clg 1% Condns Enth=>MDB, ! Name
  30.7,                                   ! Maximum Dry-Bulb Temperature {C}
  9.9,                                    ! Daily Dry-Bulb Temperature Range {deltaC}
  75600,                                  ! Humidity Indicating Conditions at Maximum Dry-Bulb {BasedOnField A3}
  97621,                                  ! Barometric Pressure {Pa}
  3.3,                                    ! Wind Speed {m/s}
  330,                                    ! Wind Direction {deg}
  0,                                      ! Sky Clearness
  0,                                      ! Rain Indicator
  0,                                      ! Snow Indicator
  21,                                     ! Day of Month
  7,                                      ! Month
  SummerDesignDay,                        ! Day Type
  0,                                      ! Daylight Saving Time Indicator
  Enthalpy,                               ! Humidity Indicating Type
  ,                                       ! Humidity Indicating Day Schedule Name
  DefaultMultipliers,                     ! Dry-Bulb Temperature Range Modifier Type
  ,                                       ! Dry-Bulb Temperature Range Modifier Schedule Name
  ASHRAETau,                              ! Solar Model Indicator
  ,                                       ! Beam Solar Day Schedule Name
  ,                                       ! Diffuse Solar Day Schedule Name
  0.554,                                  ! ASHRAE Taub {dimensionless}
  1.783;                                  ! ASHRAE Taud {dimensionless}

OS:ComponentData,
  {25bd2905-692e-4005-b218-41184ff85a1e}, ! Handle
  Component Data 1,                       ! Name
  {465ae67c-e042-4642-a47a-9bdcb54c7389}, ! UUID
  {40be3356-d460-4c4d-9de2-5d6883fd0a3e}, ! Version UUID
  1366307008,                             ! Creation Timestamp
  1366307008,                             ! Version Timestamp
  {36e4029d-499a-4eec-8eb9-cc2c7c1c17c0}; ! Name of Object 1

