
OS:Version,
  {ab72241b-d18f-4d5e-a374-2b067654e739}, ! Handle
  0.9.3;                                  ! Version Identifier

OS:SizingPeriod:DesignDay,
  {8e0388a3-ffc9-41d7-bda7-ced6ae7eeeb5}, ! Handle
  Jackson Ann Htg 99% Condns DB,          ! Name
  -3.5,                                   ! Maximum Dry-Bulb Temperature {C}
  0,                                      ! Daily Dry-Bulb Temperature Range {deltaC}
  -3.5,                                   ! Humidity Indicating Conditions at Maximum Dry-Bulb {BasedOnField A3}
  100118,                                 ! Barometric Pressure {Pa}
  2.6,                                    ! Wind Speed {m/s}
  350,                                    ! Wind Direction {deg}
  0,                                      ! Sky Clearness
  0,                                      ! Rain Indicator
  0,                                      ! Snow Indicator
  21,                                     ! Day of Month
  1,                                      ! Month
  WinterDesignDay,                        ! Day Type
  0,                                      ! Daylight Saving Time Indicator
  Wetbulb,                                ! Humidity Indicating Type
  ,                                       ! Humidity Indicating Day Schedule Name
  DefaultMultipliers,                     ! Dry-Bulb Temperature Range Modifier Type
  ,                                       ! Dry-Bulb Temperature Range Modifier Schedule Name
  ASHRAEClearSky;                         ! Solar Model Indicator

OS:ComponentData,
  {43d460b0-cbf4-4923-8d01-c08b9e40cd9e}, ! Handle
  Component Data 1,                       ! Name
  {ad796b1e-f334-4098-890e-51e8aac0d8c9}, ! UUID
  {bf3c91d6-b6f1-4052-b39c-898f6074716f}, ! Version UUID
  1366308644,                             ! Creation Timestamp
  1366308644,                             ! Version Timestamp
  {8e0388a3-ffc9-41d7-bda7-ced6ae7eeeb5}; ! Name of Object 1

