
OS:Version,
  {bac9cdf0-a0d9-4b7f-80d5-e069e47d0fc3}, ! Handle
  0.9.3;                                  ! Version Identifier

OS:SizingPeriod:DesignDay,
  {823428b4-fb13-4079-92c7-dc847ca4d476}, ! Handle
  Hot Springs Ingalls Ann Hum_n 99% Condns DP=>MCDB, ! Name
  -11,                                    ! Maximum Dry-Bulb Temperature {C}
  0,                                      ! Daily Dry-Bulb Temperature Range {deltaC}
  -19.1,                                  ! Humidity Indicating Conditions at Maximum Dry-Bulb {BasedOnField A3}
  88187,                                  ! Barometric Pressure {Pa}
  9,                                      ! Wind Speed {m/s}
  290,                                    ! Wind Direction {deg}
  0,                                      ! Sky Clearness
  0,                                      ! Rain Indicator
  0,                                      ! Snow Indicator
  21,                                     ! Day of Month
  1,                                      ! Month
  WinterDesignDay,                        ! Day Type
  0,                                      ! Daylight Saving Time Indicator
  Dewpoint,                               ! Humidity Indicating Type
  ,                                       ! Humidity Indicating Day Schedule Name
  DefaultMultipliers,                     ! Dry-Bulb Temperature Range Modifier Type
  ,                                       ! Dry-Bulb Temperature Range Modifier Schedule Name
  ASHRAEClearSky;                         ! Solar Model Indicator

OS:ComponentData,
  {bff4829c-cade-402e-83b8-8892d0f36ed5}, ! Handle
  Component Data 1,                       ! Name
  {09f03fc3-ef8c-4059-97cb-15039518e283}, ! UUID
  {aa37d047-3f4f-4d61-92ad-b6343f1d6cf2}, ! Version UUID
  1366311065,                             ! Creation Timestamp
  1366311065,                             ! Version Timestamp
  {823428b4-fb13-4079-92c7-dc847ca4d476}; ! Name of Object 1

