
OS:Version,
  {aa560f68-926e-4fcb-88ea-ecae40047aa8}, ! Handle
  0.9.3;                                  ! Version Identifier

OS:SizingPeriod:DesignDay,
  {1ed4e1d6-ce50-4e76-b69d-5e47cf0a8094}, ! Handle
  Anchorage Merrill Field Ann Clg 1% Condns DP=>MDB, ! Name
  16.7,                                   ! Maximum Dry-Bulb Temperature {C}
  6.8,                                    ! Daily Dry-Bulb Temperature Range {deltaC}
  13.1,                                   ! Humidity Indicating Conditions at Maximum Dry-Bulb {BasedOnField A3}
  100821,                                 ! Barometric Pressure {Pa}
  2.8,                                    ! Wind Speed {m/s}
  270,                                    ! Wind Direction {deg}
  0,                                      ! Sky Clearness
  0,                                      ! Rain Indicator
  0,                                      ! Snow Indicator
  21,                                     ! Day of Month
  7,                                      ! Month
  SummerDesignDay,                        ! Day Type
  0,                                      ! Daylight Saving Time Indicator
  Dewpoint,                               ! Humidity Indicating Type
  ,                                       ! Humidity Indicating Day Schedule Name
  DefaultMultipliers,                     ! Dry-Bulb Temperature Range Modifier Type
  ,                                       ! Dry-Bulb Temperature Range Modifier Schedule Name
  ASHRAETau,                              ! Solar Model Indicator
  ,                                       ! Beam Solar Day Schedule Name
  ,                                       ! Diffuse Solar Day Schedule Name
  0.39,                                   ! ASHRAE Taub {dimensionless}
  2.155;                                  ! ASHRAE Taud {dimensionless}

OS:ComponentData,
  {602dbad7-7773-4c6e-8b3b-4547cf3075e2}, ! Handle
  Component Data 1,                       ! Name
  {36fddcb1-c45e-40bb-9b1e-7746bbf747c4}, ! UUID
  {9784b8e3-d191-4773-a159-6c710a281190}, ! Version UUID
  1366304701,                             ! Creation Timestamp
  1366304701,                             ! Version Timestamp
  {1ed4e1d6-ce50-4e76-b69d-5e47cf0a8094}; ! Name of Object 1

