
OS:Version,
  {71edfb2c-ba4a-414b-bfbf-2598ca61b0cc}, ! Handle
  0.9.3;                                  ! Version Identifier

OS:SizingPeriod:DesignDay,
  {5a9b8d1f-5224-4640-ac68-8b4c8226b616}, ! Handle
  Baudette International Ap Ann Hum_n 99% Condns DP=>MCDB, ! Name
  -26.9,                                  ! Maximum Dry-Bulb Temperature {C}
  0,                                      ! Daily Dry-Bulb Temperature Range {deltaC}
  -31.4,                                  ! Humidity Indicating Conditions at Maximum Dry-Bulb {BasedOnField A3}
  97423,                                  ! Barometric Pressure {Pa}
  1.7,                                    ! Wind Speed {m/s}
  310,                                    ! Wind Direction {deg}
  0,                                      ! Sky Clearness
  0,                                      ! Rain Indicator
  0,                                      ! Snow Indicator
  21,                                     ! Day of Month
  1,                                      ! Month
  WinterDesignDay,                        ! Day Type
  0,                                      ! Daylight Saving Time Indicator
  Dewpoint,                               ! Humidity Indicating Type
  ,                                       ! Humidity Indicating Day Schedule Name
  DefaultMultipliers,                     ! Dry-Bulb Temperature Range Modifier Type
  ,                                       ! Dry-Bulb Temperature Range Modifier Schedule Name
  ASHRAEClearSky;                         ! Solar Model Indicator

OS:ComponentData,
  {0f0b4410-df2a-48d1-abeb-4613b670da83}, ! Handle
  Component Data 1,                       ! Name
  {173e7a9f-5072-45e9-b607-d6cf55d68526}, ! UUID
  {c99178ec-f823-4396-a8c8-ae9fad4f2485}, ! Version UUID
  1366308153,                             ! Creation Timestamp
  1366308153,                             ! Version Timestamp
  {5a9b8d1f-5224-4640-ac68-8b4c8226b616}; ! Name of Object 1

