
OS:Version,
  {21c22f2c-b59f-4728-8e0c-ce3d84cb9d89}, ! Handle
  0.9.3;                                  ! Version Identifier

OS:SizingPeriod:DesignDay,
  {05bb4fa3-5ac6-4d21-a4ae-9963e83b9fa4}, ! Handle
  Dickinson Municipal Ap Ann Clg 1% Condns Enth=>MDB, ! Name
  27.6,                                   ! Maximum Dry-Bulb Temperature {C}
  14.4,                                   ! Daily Dry-Bulb Temperature Range {deltaC}
  63300,                                  ! Humidity Indicating Conditions at Maximum Dry-Bulb {BasedOnField A3}
  92210,                                  ! Barometric Pressure {Pa}
  6.3,                                    ! Wind Speed {m/s}
  150,                                    ! Wind Direction {deg}
  0,                                      ! Sky Clearness
  0,                                      ! Rain Indicator
  0,                                      ! Snow Indicator
  21,                                     ! Day of Month
  7,                                      ! Month
  SummerDesignDay,                        ! Day Type
  0,                                      ! Daylight Saving Time Indicator
  Enthalpy,                               ! Humidity Indicating Type
  ,                                       ! Humidity Indicating Day Schedule Name
  DefaultMultipliers,                     ! Dry-Bulb Temperature Range Modifier Type
  ,                                       ! Dry-Bulb Temperature Range Modifier Schedule Name
  ASHRAETau,                              ! Solar Model Indicator
  ,                                       ! Beam Solar Day Schedule Name
  ,                                       ! Diffuse Solar Day Schedule Name
  0.38,                                   ! ASHRAE Taub {dimensionless}
  2.261;                                  ! ASHRAE Taud {dimensionless}

OS:ComponentData,
  {8779613d-a56c-4fe7-b9c9-3985461df35c}, ! Handle
  Component Data 1,                       ! Name
  {d43694a8-59ef-405f-b430-927676b28c18}, ! UUID
  {8c79947c-3748-41d6-bddd-d5623c5205e3}, ! Version UUID
  1366309021,                             ! Creation Timestamp
  1366309021,                             ! Version Timestamp
  {05bb4fa3-5ac6-4d21-a4ae-9963e83b9fa4}; ! Name of Object 1

