
OS:Version,
  {47ec33aa-9b14-44fe-bd78-74da7557a022}, ! Handle
  0.9.3;                                  ! Version Identifier

OS:SizingPeriod:DesignDay,
  {ca50dd25-ab96-4f01-bc40-cf58f629f0d4}, ! Handle
  Brunswick Malcolm Mckinnon Ap Ann Clg .4% Condns Enth=>MDB, ! Name
  31.2,                                   ! Maximum Dry-Bulb Temperature {C}
  7.7,                                    ! Daily Dry-Bulb Temperature Range {deltaC}
  84600,                                  ! Humidity Indicating Conditions at Maximum Dry-Bulb {BasedOnField A3}
  101277,                                 ! Barometric Pressure {Pa}
  4.5,                                    ! Wind Speed {m/s}
  250,                                    ! Wind Direction {deg}
  0,                                      ! Sky Clearness
  0,                                      ! Rain Indicator
  0,                                      ! Snow Indicator
  21,                                     ! Day of Month
  7,                                      ! Month
  SummerDesignDay,                        ! Day Type
  0,                                      ! Daylight Saving Time Indicator
  Enthalpy,                               ! Humidity Indicating Type
  ,                                       ! Humidity Indicating Day Schedule Name
  DefaultMultipliers,                     ! Dry-Bulb Temperature Range Modifier Type
  ,                                       ! Dry-Bulb Temperature Range Modifier Schedule Name
  ASHRAETau,                              ! Solar Model Indicator
  ,                                       ! Beam Solar Day Schedule Name
  ,                                       ! Diffuse Solar Day Schedule Name
  0.564,                                  ! ASHRAE Taub {dimensionless}
  1.805;                                  ! ASHRAE Taud {dimensionless}

OS:ComponentData,
  {e805c709-798e-4e60-ae56-c6f14dd1e3b3}, ! Handle
  Component Data 1,                       ! Name
  {d9bf8842-8775-4b14-922b-fa9fb6100fb0}, ! UUID
  {5bf9b6c9-a810-44f7-9508-4d80d186ca38}, ! Version UUID
  1366306997,                             ! Creation Timestamp
  1366306997,                             ! Version Timestamp
  {ca50dd25-ab96-4f01-bc40-cf58f629f0d4}; ! Name of Object 1

