
OS:Version,
  {7a7486c9-6b08-4b73-a33d-59066fd79839}, ! Handle
  0.9.3;                                  ! Version Identifier

OS:SizingPeriod:DesignDay,
  {a3eb0b50-6042-4ad5-b21c-81e7383adc86}, ! Handle
  Greer GreenvL Spartanbrg Ap Ann Clg .4% Condns DP=>MDB, ! Name
  26.9,                                   ! Maximum Dry-Bulb Temperature {C}
  10.6,                                   ! Daily Dry-Bulb Temperature Range {deltaC}
  23.3,                                   ! Humidity Indicating Conditions at Maximum Dry-Bulb {BasedOnField A3}
  97866,                                  ! Barometric Pressure {Pa}
  3.6,                                    ! Wind Speed {m/s}
  230,                                    ! Wind Direction {deg}
  0,                                      ! Sky Clearness
  0,                                      ! Rain Indicator
  0,                                      ! Snow Indicator
  21,                                     ! Day of Month
  7,                                      ! Month
  SummerDesignDay,                        ! Day Type
  0,                                      ! Daylight Saving Time Indicator
  Dewpoint,                               ! Humidity Indicating Type
  ,                                       ! Humidity Indicating Day Schedule Name
  DefaultMultipliers,                     ! Dry-Bulb Temperature Range Modifier Type
  ,                                       ! Dry-Bulb Temperature Range Modifier Schedule Name
  ASHRAETau,                              ! Solar Model Indicator
  ,                                       ! Beam Solar Day Schedule Name
  ,                                       ! Diffuse Solar Day Schedule Name
  0.545,                                  ! ASHRAE Taub {dimensionless}
  1.796;                                  ! ASHRAE Taud {dimensionless}

OS:ComponentData,
  {ba9e1eeb-0afd-4771-b441-19d4afe8ef65}, ! Handle
  Component Data 1,                       ! Name
  {8ac88ed8-7e56-48e6-8cb8-34ec134b40d5}, ! UUID
  {df3c52f3-46a6-412a-a710-e9c621535205}, ! Version UUID
  1366310369,                             ! Creation Timestamp
  1366310369,                             ! Version Timestamp
  {a3eb0b50-6042-4ad5-b21c-81e7383adc86}; ! Name of Object 1

