
OS:Version,
  {e4ed0fa5-add0-451e-a484-217286751d4b}, ! Handle
  0.9.3;                                  ! Version Identifier

OS:SizingPeriod:DesignDay,
  {6bafd4b1-edd5-4c1f-be9d-7c38d51c0655}, ! Handle
  Glasgow Ann Clg .4% Condns DP=>MDB,     ! Name
  23.6,                                   ! Maximum Dry-Bulb Temperature {C}
  14.5,                                   ! Daily Dry-Bulb Temperature Range {deltaC}
  17.4,                                   ! Humidity Indicating Conditions at Maximum Dry-Bulb {BasedOnField A3}
  93194,                                  ! Barometric Pressure {Pa}
  5.4,                                    ! Wind Speed {m/s}
  150,                                    ! Wind Direction {deg}
  0,                                      ! Sky Clearness
  0,                                      ! Rain Indicator
  0,                                      ! Snow Indicator
  21,                                     ! Day of Month
  7,                                      ! Month
  SummerDesignDay,                        ! Day Type
  0,                                      ! Daylight Saving Time Indicator
  Dewpoint,                               ! Humidity Indicating Type
  ,                                       ! Humidity Indicating Day Schedule Name
  DefaultMultipliers,                     ! Dry-Bulb Temperature Range Modifier Type
  ,                                       ! Dry-Bulb Temperature Range Modifier Schedule Name
  ASHRAETau,                              ! Solar Model Indicator
  ,                                       ! Beam Solar Day Schedule Name
  ,                                       ! Diffuse Solar Day Schedule Name
  0.424,                                  ! ASHRAE Taub {dimensionless}
  2.044;                                  ! ASHRAE Taud {dimensionless}

