
OS:Version,
  {3eb3a03c-402f-4e61-85e5-b5bdc3e46792}, ! Handle
  0.9.3;                                  ! Version Identifier

OS:SizingPeriod:DesignDay,
  {68e7924a-4038-44a4-806d-6856e6c730e3}, ! Handle
  Dodge City Regional Ap Ann Hum_n 99.6% Condns DP=>MCDB, ! Name
  -14.9,                                  ! Maximum Dry-Bulb Temperature {C}
  0,                                      ! Daily Dry-Bulb Temperature Range {deltaC}
  -21.4,                                  ! Humidity Indicating Conditions at Maximum Dry-Bulb {BasedOnField A3}
  92243,                                  ! Barometric Pressure {Pa}
  5.6,                                    ! Wind Speed {m/s}
  0,                                      ! Wind Direction {deg}
  0,                                      ! Sky Clearness
  0,                                      ! Rain Indicator
  0,                                      ! Snow Indicator
  21,                                     ! Day of Month
  1,                                      ! Month
  WinterDesignDay,                        ! Day Type
  0,                                      ! Daylight Saving Time Indicator
  Dewpoint,                               ! Humidity Indicating Type
  ,                                       ! Humidity Indicating Day Schedule Name
  DefaultMultipliers,                     ! Dry-Bulb Temperature Range Modifier Type
  ,                                       ! Dry-Bulb Temperature Range Modifier Schedule Name
  ASHRAEClearSky;                         ! Solar Model Indicator

OS:ComponentData,
  {790dc8ca-1d7d-4010-8487-78b0678f9fa2}, ! Handle
  Component Data 1,                       ! Name
  {21328d38-085f-471e-a50f-e9ecdce1850e}, ! UUID
  {36f35bc3-7a0f-4810-b638-aa58dbe9a3f4}, ! Version UUID
  1366307516,                             ! Creation Timestamp
  1366307516,                             ! Version Timestamp
  {68e7924a-4038-44a4-806d-6856e6c730e3}; ! Name of Object 1

