
OS:Version,
  {de4dc1cd-f471-4ef7-b61d-bc59d64f0f3e}, ! Handle
  0.9.3;                                  ! Version Identifier

OS:SizingPeriod:DesignDay,
  {8e2323a3-150e-48d7-b144-b26bfcd1cef9}, ! Handle
  Charlotte Douglas Intl Arpt Ann Clg 1% Condns WB=>MDB, ! Name
  30.4,                                   ! Maximum Dry-Bulb Temperature {C}
  10.1,                                   ! Daily Dry-Bulb Temperature Range {deltaC}
  24.5,                                   ! Humidity Indicating Conditions at Maximum Dry-Bulb {BasedOnField A3}
  98686,                                  ! Barometric Pressure {Pa}
  3.3,                                    ! Wind Speed {m/s}
  240,                                    ! Wind Direction {deg}
  0,                                      ! Sky Clearness
  0,                                      ! Rain Indicator
  0,                                      ! Snow Indicator
  21,                                     ! Day of Month
  7,                                      ! Month
  SummerDesignDay,                        ! Day Type
  0,                                      ! Daylight Saving Time Indicator
  Wetbulb,                                ! Humidity Indicating Type
  ,                                       ! Humidity Indicating Day Schedule Name
  DefaultMultipliers,                     ! Dry-Bulb Temperature Range Modifier Type
  ,                                       ! Dry-Bulb Temperature Range Modifier Schedule Name
  ASHRAETau,                              ! Solar Model Indicator
  ,                                       ! Beam Solar Day Schedule Name
  ,                                       ! Diffuse Solar Day Schedule Name
  0.557,                                  ! ASHRAE Taub {dimensionless}
  1.762;                                  ! ASHRAE Taud {dimensionless}

OS:ComponentData,
  {1eb88521-7e07-4e4d-80bf-f839809dc933}, ! Handle
  Component Data 1,                       ! Name
  {043c67ee-825f-449d-b888-42868c62989a}, ! UUID
  {3005bad0-d9af-440d-a461-2da7222b7f5f}, ! Version UUID
  1366308889,                             ! Creation Timestamp
  1366308889,                             ! Version Timestamp
  {8e2323a3-150e-48d7-b144-b26bfcd1cef9}; ! Name of Object 1

