
OS:Version,
  {e3cca4fd-39e5-4185-91cd-613b8638a8bd}, ! Handle
  0.9.3;                                  ! Version Identifier

OS:SizingPeriod:DesignDay,
  {50226fe6-ecbc-4c06-ab14-4fdccf93d354}, ! Handle
  Boston Logan IntL Arpt Ann Clg 2% Condns Enth=>MDB, ! Name
  27.2,                                   ! Maximum Dry-Bulb Temperature {C}
  8.4,                                    ! Daily Dry-Bulb Temperature Range {deltaC}
  67000,                                  ! Humidity Indicating Conditions at Maximum Dry-Bulb {BasedOnField A3}
  101253,                                 ! Barometric Pressure {Pa}
  6.3,                                    ! Wind Speed {m/s}
  270,                                    ! Wind Direction {deg}
  0,                                      ! Sky Clearness
  0,                                      ! Rain Indicator
  0,                                      ! Snow Indicator
  21,                                     ! Day of Month
  7,                                      ! Month
  SummerDesignDay,                        ! Day Type
  0,                                      ! Daylight Saving Time Indicator
  Enthalpy,                               ! Humidity Indicating Type
  ,                                       ! Humidity Indicating Day Schedule Name
  DefaultMultipliers,                     ! Dry-Bulb Temperature Range Modifier Type
  ,                                       ! Dry-Bulb Temperature Range Modifier Schedule Name
  ASHRAETau,                              ! Solar Model Indicator
  ,                                       ! Beam Solar Day Schedule Name
  ,                                       ! Diffuse Solar Day Schedule Name
  0.488,                                  ! ASHRAE Taub {dimensionless}
  1.95;                                   ! ASHRAE Taud {dimensionless}

OS:ComponentData,
  {0fc90536-e5a0-497a-9d0b-3ff625f789d2}, ! Handle
  Component Data 1,                       ! Name
  {1f11668e-f599-4df3-8fe2-c608e0f8990b}, ! UUID
  {7a8b54ac-6aa3-432d-a101-f9175dabab58}, ! Version UUID
  1366307794,                             ! Creation Timestamp
  1366307794,                             ! Version Timestamp
  {50226fe6-ecbc-4c06-ab14-4fdccf93d354}; ! Name of Object 1

