
OS:Version,
  {74515501-800b-48fa-adec-e6158ff7a95d}, ! Handle
  0.9.3;                                  ! Version Identifier

OS:SizingPeriod:DesignDay,
  {4a0ed039-6169-4b7c-9a3a-3367322c55f6}, ! Handle
  Houghton Lake Roscommon Co Ar Ann Htg 99% Condns DB, ! Name
  -18.2,                                  ! Maximum Dry-Bulb Temperature {C}
  0,                                      ! Daily Dry-Bulb Temperature Range {deltaC}
  -18.2,                                  ! Humidity Indicating Conditions at Maximum Dry-Bulb {BasedOnField A3}
  97179,                                  ! Barometric Pressure {Pa}
  1.6,                                    ! Wind Speed {m/s}
  260,                                    ! Wind Direction {deg}
  0,                                      ! Sky Clearness
  0,                                      ! Rain Indicator
  0,                                      ! Snow Indicator
  21,                                     ! Day of Month
  1,                                      ! Month
  WinterDesignDay,                        ! Day Type
  0,                                      ! Daylight Saving Time Indicator
  Wetbulb,                                ! Humidity Indicating Type
  ,                                       ! Humidity Indicating Day Schedule Name
  DefaultMultipliers,                     ! Dry-Bulb Temperature Range Modifier Type
  ,                                       ! Dry-Bulb Temperature Range Modifier Schedule Name
  ASHRAEClearSky;                         ! Solar Model Indicator

OS:ComponentData,
  {7c544a5f-4c36-4870-a521-a544d139efa9}, ! Handle
  Component Data 1,                       ! Name
  {80f826b2-7aae-4b5b-8df5-aa215f749c8c}, ! UUID
  {118b40a8-c2fd-459e-803c-cbf6f62412b0}, ! Version UUID
  1366308025,                             ! Creation Timestamp
  1366308025,                             ! Version Timestamp
  {4a0ed039-6169-4b7c-9a3a-3367322c55f6}; ! Name of Object 1

