
OS:Version,
  {452754f3-e5bc-4d1f-896e-af6a1e268a57}, ! Handle
  0.9.3;                                  ! Version Identifier

OS:SizingPeriod:DesignDay,
  {f0174a65-4eb4-4393-8948-3412ebeb5034}, ! Handle
  HOUGHTON Ann Clg 1% Condns WB=>MDB,     ! Name
  26,                                     ! Maximum Dry-Bulb Temperature {C}
  10.5,                                   ! Daily Dry-Bulb Temperature Range {deltaC}
  21.4,                                   ! Humidity Indicating Conditions at Maximum Dry-Bulb {BasedOnField A3}
  97435,                                  ! Barometric Pressure {Pa}
  4.7,                                    ! Wind Speed {m/s}
  270,                                    ! Wind Direction {deg}
  0,                                      ! Sky Clearness
  0,                                      ! Rain Indicator
  0,                                      ! Snow Indicator
  21,                                     ! Day of Month
  7,                                      ! Month
  SummerDesignDay,                        ! Day Type
  0,                                      ! Daylight Saving Time Indicator
  Wetbulb,                                ! Humidity Indicating Type
  ,                                       ! Humidity Indicating Day Schedule Name
  DefaultMultipliers,                     ! Dry-Bulb Temperature Range Modifier Type
  ,                                       ! Dry-Bulb Temperature Range Modifier Schedule Name
  ASHRAETau,                              ! Solar Model Indicator
  ,                                       ! Beam Solar Day Schedule Name
  ,                                       ! Diffuse Solar Day Schedule Name
  0.413,                                  ! ASHRAE Taub {dimensionless}
  2.179;                                  ! ASHRAE Taud {dimensionless}

OS:ComponentData,
  {fd53b85e-427e-4f00-84df-af1b6c03dab6}, ! Handle
  Component Data 1,                       ! Name
  {ae4783df-eacd-4869-a7c5-74f80d7d5e70}, ! UUID
  {f90001c3-e397-4426-9188-b8d0349b7c68}, ! Version UUID
  1366308030,                             ! Creation Timestamp
  1366308030,                             ! Version Timestamp
  {f0174a65-4eb4-4393-8948-3412ebeb5034}; ! Name of Object 1

