
OS:Version,
  {5c6c77e0-e9eb-43c8-96c5-5d3d8fa82b5a}, ! Handle
  0.9.3;                                  ! Version Identifier

OS:SizingPeriod:DesignDay,
  {71f40010-52d1-4364-be43-b2f90cc1054f}, ! Handle
  Fergus Falls Awos Ann Clg 2% Condns DP=>MDB, ! Name
  25.2,                                   ! Maximum Dry-Bulb Temperature {C}
  11.6,                                   ! Daily Dry-Bulb Temperature Range {deltaC}
  21,                                     ! Humidity Indicating Conditions at Maximum Dry-Bulb {BasedOnField A3}
  97063,                                  ! Barometric Pressure {Pa}
  6.2,                                    ! Wind Speed {m/s}
  170,                                    ! Wind Direction {deg}
  0,                                      ! Sky Clearness
  0,                                      ! Rain Indicator
  0,                                      ! Snow Indicator
  21,                                     ! Day of Month
  7,                                      ! Month
  SummerDesignDay,                        ! Day Type
  0,                                      ! Daylight Saving Time Indicator
  Dewpoint,                               ! Humidity Indicating Type
  ,                                       ! Humidity Indicating Day Schedule Name
  DefaultMultipliers,                     ! Dry-Bulb Temperature Range Modifier Type
  ,                                       ! Dry-Bulb Temperature Range Modifier Schedule Name
  ASHRAETau,                              ! Solar Model Indicator
  ,                                       ! Beam Solar Day Schedule Name
  ,                                       ! Diffuse Solar Day Schedule Name
  0.393,                                  ! ASHRAE Taub {dimensionless}
  2.26;                                   ! ASHRAE Taud {dimensionless}

OS:ComponentData,
  {4c747bca-e274-4dcc-9ec8-ed43a7a83e67}, ! Handle
  Component Data 1,                       ! Name
  {9ff6c3e4-6b45-47b0-9b4b-8ebd7acc2efc}, ! UUID
  {45ef97aa-00fd-47c9-a5bf-b05b0d889fd0}, ! Version UUID
  1366308234,                             ! Creation Timestamp
  1366308234,                             ! Version Timestamp
  {71f40010-52d1-4364-be43-b2f90cc1054f}; ! Name of Object 1

