
OS:Version,
  {a2e967bb-d453-4185-904f-1e6cf0d6eb38}, ! Handle
  0.9.3;                                  ! Version Identifier

OS:SizingPeriod:DesignDay,
  {8d638334-1fdc-4c00-9214-ef0f82d22ee7}, ! Handle
  Huntington Tri State Arpt Ann Clg .4% Condns DP=>MDB, ! Name
  27.5,                                   ! Maximum Dry-Bulb Temperature {C}
  10.5,                                   ! Daily Dry-Bulb Temperature Range {deltaC}
  23.6,                                   ! Humidity Indicating Conditions at Maximum Dry-Bulb {BasedOnField A3}
  98322,                                  ! Barometric Pressure {Pa}
  3.3,                                    ! Wind Speed {m/s}
  260,                                    ! Wind Direction {deg}
  0,                                      ! Sky Clearness
  0,                                      ! Rain Indicator
  0,                                      ! Snow Indicator
  21,                                     ! Day of Month
  7,                                      ! Month
  SummerDesignDay,                        ! Day Type
  0,                                      ! Daylight Saving Time Indicator
  Dewpoint,                               ! Humidity Indicating Type
  ,                                       ! Humidity Indicating Day Schedule Name
  DefaultMultipliers,                     ! Dry-Bulb Temperature Range Modifier Type
  ,                                       ! Dry-Bulb Temperature Range Modifier Schedule Name
  ASHRAETau,                              ! Solar Model Indicator
  ,                                       ! Beam Solar Day Schedule Name
  ,                                       ! Diffuse Solar Day Schedule Name
  0.512,                                  ! ASHRAE Taub {dimensionless}
  1.865;                                  ! ASHRAE Taud {dimensionless}

OS:ComponentData,
  {332d2e4a-dbe0-4dc8-8f49-2987b4711f33}, ! Handle
  Component Data 1,                       ! Name
  {f3e8ae2b-33b2-4cb5-b2a4-463dfba54561}, ! UUID
  {1c708e48-9344-4fe1-a4dc-37b5e4df1797}, ! Version UUID
  1366311653,                             ! Creation Timestamp
  1366311653,                             ! Version Timestamp
  {8d638334-1fdc-4c00-9214-ef0f82d22ee7}; ! Name of Object 1

