
OS:Version,
  {5b53c336-3177-4fd6-afa1-b78aac1ecc2f}, ! Handle
  0.9.3;                                  ! Version Identifier

OS:SizingPeriod:DesignDay,
  {1b45dab4-a036-4faa-bce3-9a5a7799ca13}, ! Handle
  BOSTON Ann Clg 2% Condns DB=>MWB,       ! Name
  29.1,                                   ! Maximum Dry-Bulb Temperature {C}
  8.4,                                    ! Daily Dry-Bulb Temperature Range {deltaC}
  21.4,                                   ! Humidity Indicating Conditions at Maximum Dry-Bulb {BasedOnField A3}
  101265,                                 ! Barometric Pressure {Pa}
  6.3,                                    ! Wind Speed {m/s}
  270,                                    ! Wind Direction {deg}
  0,                                      ! Sky Clearness
  0,                                      ! Rain Indicator
  0,                                      ! Snow Indicator
  21,                                     ! Day of Month
  7,                                      ! Month
  SummerDesignDay,                        ! Day Type
  0,                                      ! Daylight Saving Time Indicator
  Wetbulb,                                ! Humidity Indicating Type
  ,                                       ! Humidity Indicating Day Schedule Name
  DefaultMultipliers,                     ! Dry-Bulb Temperature Range Modifier Type
  ,                                       ! Dry-Bulb Temperature Range Modifier Schedule Name
  ASHRAETau,                              ! Solar Model Indicator
  ,                                       ! Beam Solar Day Schedule Name
  ,                                       ! Diffuse Solar Day Schedule Name
  0.488,                                  ! ASHRAE Taub {dimensionless}
  1.95;                                   ! ASHRAE Taud {dimensionless}

OS:ComponentData,
  {8eb2539b-3cb7-4a48-8bbb-100d630cef87}, ! Handle
  Component Data 1,                       ! Name
  {0ac7d96b-5c5b-42bd-8d7f-abcfbec488fe}, ! UUID
  {9dbd930b-504b-43df-b3a8-860091b4bb56}, ! Version UUID
  1366307782,                             ! Creation Timestamp
  1366307782,                             ! Version Timestamp
  {1b45dab4-a036-4faa-bce3-9a5a7799ca13}; ! Name of Object 1

