
OS:Version,
  {f9c20242-cb8d-48f1-9d3f-1bad3c3c480d}, ! Handle
  0.9.3;                                  ! Version Identifier

OS:SizingPeriod:DesignDay,
  {d444d82d-39c9-4c0a-81ee-6bbda1848ec8}, ! Handle
  Alexandria Municipal Ap Ann Clg .4% Condns WB=>MDB, ! Name
  29.5,                                   ! Maximum Dry-Bulb Temperature {C}
  10.4,                                   ! Daily Dry-Bulb Temperature Range {deltaC}
  24.1,                                   ! Humidity Indicating Conditions at Maximum Dry-Bulb {BasedOnField A3}
  96230,                                  ! Barometric Pressure {Pa}
  6.2,                                    ! Wind Speed {m/s}
  180,                                    ! Wind Direction {deg}
  0,                                      ! Sky Clearness
  0,                                      ! Rain Indicator
  0,                                      ! Snow Indicator
  21,                                     ! Day of Month
  7,                                      ! Month
  SummerDesignDay,                        ! Day Type
  0,                                      ! Daylight Saving Time Indicator
  Wetbulb,                                ! Humidity Indicating Type
  ,                                       ! Humidity Indicating Day Schedule Name
  DefaultMultipliers,                     ! Dry-Bulb Temperature Range Modifier Type
  ,                                       ! Dry-Bulb Temperature Range Modifier Schedule Name
  ASHRAETau,                              ! Solar Model Indicator
  ,                                       ! Beam Solar Day Schedule Name
  ,                                       ! Diffuse Solar Day Schedule Name
  0.39,                                   ! ASHRAE Taub {dimensionless}
  2.268;                                  ! ASHRAE Taud {dimensionless}

OS:ComponentData,
  {0f0181c8-fe39-4916-8481-e252d33b26bd}, ! Handle
  Component Data 1,                       ! Name
  {c07452a5-767b-48d5-b772-68ffbb520e88}, ! UUID
  {e215da13-c784-482e-81b4-e44cd93e5db6}, ! Version UUID
  1366308145,                             ! Creation Timestamp
  1366308145,                             ! Version Timestamp
  {d444d82d-39c9-4c0a-81ee-6bbda1848ec8}; ! Name of Object 1

