
OS:Version,
  {14c698c8-8afc-4d76-93d5-8995b5ec5435}, ! Handle
  0.9.3;                                  ! Version Identifier

OS:SizingPeriod:DesignDay,
  {f606bf18-94d1-4be6-8111-3b5ad371c531}, ! Handle
  COLORADO_SPRINGS Ann Clg .4% Condns DB=>MWB, ! Name
  32.4,                                   ! Maximum Dry-Bulb Temperature {C}
  14.5,                                   ! Daily Dry-Bulb Temperature Range {deltaC}
  14.9,                                   ! Humidity Indicating Conditions at Maximum Dry-Bulb {BasedOnField A3}
  80677,                                  ! Barometric Pressure {Pa}
  5.4,                                    ! Wind Speed {m/s}
  170,                                    ! Wind Direction {deg}
  0,                                      ! Sky Clearness
  0,                                      ! Rain Indicator
  0,                                      ! Snow Indicator
  21,                                     ! Day of Month
  7,                                      ! Month
  SummerDesignDay,                        ! Day Type
  0,                                      ! Daylight Saving Time Indicator
  Wetbulb,                                ! Humidity Indicating Type
  ,                                       ! Humidity Indicating Day Schedule Name
  DefaultMultipliers,                     ! Dry-Bulb Temperature Range Modifier Type
  ,                                       ! Dry-Bulb Temperature Range Modifier Schedule Name
  ASHRAETau,                              ! Solar Model Indicator
  ,                                       ! Beam Solar Day Schedule Name
  ,                                       ! Diffuse Solar Day Schedule Name
  0.408,                                  ! ASHRAE Taub {dimensionless}
  2.047;                                  ! ASHRAE Taud {dimensionless}

OS:ComponentData,
  {308fecbc-1bbe-443b-9d61-f7588cc2910f}, ! Handle
  Component Data 1,                       ! Name
  {d3398dfa-26c1-4a56-b59a-6ab551c5d1b1}, ! UUID
  {349d0ad9-ea54-4995-933a-986e1d7402d8}, ! Version UUID
  1366306666,                             ! Creation Timestamp
  1366306666,                             ! Version Timestamp
  {f606bf18-94d1-4be6-8111-3b5ad371c531}; ! Name of Object 1

