
OS:Version,
  {d8199887-3d9c-4c05-9de7-cf2eef8afcf1}, ! Handle
  0.9.3;                                  ! Version Identifier

OS:SizingPeriod:DesignDay,
  {4c6bf0d5-f837-4bd5-a4fa-5aca8ab0c577}, ! Handle
  Craig Moffat Ann Clg .4% Condns Enth=>MDB, ! Name
  26.6,                                   ! Maximum Dry-Bulb Temperature {C}
  20.7,                                   ! Daily Dry-Bulb Temperature Range {deltaC}
  52600,                                  ! Humidity Indicating Conditions at Maximum Dry-Bulb {BasedOnField A3}
  80338,                                  ! Barometric Pressure {Pa}
  3.8,                                    ! Wind Speed {m/s}
  290,                                    ! Wind Direction {deg}
  0,                                      ! Sky Clearness
  0,                                      ! Rain Indicator
  0,                                      ! Snow Indicator
  21,                                     ! Day of Month
  7,                                      ! Month
  SummerDesignDay,                        ! Day Type
  0,                                      ! Daylight Saving Time Indicator
  Enthalpy,                               ! Humidity Indicating Type
  ,                                       ! Humidity Indicating Day Schedule Name
  DefaultMultipliers,                     ! Dry-Bulb Temperature Range Modifier Type
  ,                                       ! Dry-Bulb Temperature Range Modifier Schedule Name
  ASHRAETau,                              ! Solar Model Indicator
  ,                                       ! Beam Solar Day Schedule Name
  ,                                       ! Diffuse Solar Day Schedule Name
  0.372,                                  ! ASHRAE Taub {dimensionless}
  2.215;                                  ! ASHRAE Taud {dimensionless}

OS:ComponentData,
  {c259ded5-e9fa-403d-8dfe-85ff358def56}, ! Handle
  Component Data 1,                       ! Name
  {90530835-3f20-4b25-bfb5-f20e44237a3a}, ! UUID
  {91e9df5f-461e-434f-9ba1-207df61dc94b}, ! Version UUID
  1366306672,                             ! Creation Timestamp
  1366306672,                             ! Version Timestamp
  {4c6bf0d5-f837-4bd5-a4fa-5aca8ab0c577}; ! Name of Object 1

