
OS:Version,
  {a1711317-2ab2-4b24-9672-7e1809967134}, ! Handle
  0.9.3;                                  ! Version Identifier

OS:SizingPeriod:DesignDay,
  {12b0bb1a-1378-483b-886c-53a574535ee1}, ! Handle
  Evansville Regional Ap Ann Clg .4% Condns Enth=>MDB, ! Name
  32.1,                                   ! Maximum Dry-Bulb Temperature {C}
  10.6,                                   ! Daily Dry-Bulb Temperature Range {deltaC}
  82200,                                  ! Humidity Indicating Conditions at Maximum Dry-Bulb {BasedOnField A3}
  99939,                                  ! Barometric Pressure {Pa}
  3.7,                                    ! Wind Speed {m/s}
  240,                                    ! Wind Direction {deg}
  0,                                      ! Sky Clearness
  0,                                      ! Rain Indicator
  0,                                      ! Snow Indicator
  21,                                     ! Day of Month
  7,                                      ! Month
  SummerDesignDay,                        ! Day Type
  0,                                      ! Daylight Saving Time Indicator
  Enthalpy,                               ! Humidity Indicating Type
  ,                                       ! Humidity Indicating Day Schedule Name
  DefaultMultipliers,                     ! Dry-Bulb Temperature Range Modifier Type
  ,                                       ! Dry-Bulb Temperature Range Modifier Schedule Name
  ASHRAETau,                              ! Solar Model Indicator
  ,                                       ! Beam Solar Day Schedule Name
  ,                                       ! Diffuse Solar Day Schedule Name
  0.508,                                  ! ASHRAE Taub {dimensionless}
  1.881;                                  ! ASHRAE Taud {dimensionless}

