
OS:Version,
  {9ba4da43-918a-41ee-85c8-9721eb9a6a86}, ! Handle
  0.9.3;                                  ! Version Identifier

OS:SizingPeriod:DesignDay,
  {43c6b1ab-b909-4669-8fba-48df48ac1f1a}, ! Handle
  Elko Municipal Arpt Ann Clg 2% Condns DB=>MWB, ! Name
  32,                                     ! Maximum Dry-Bulb Temperature {C}
  21.8,                                   ! Daily Dry-Bulb Temperature Range {deltaC}
  14.7,                                   ! Humidity Indicating Conditions at Maximum Dry-Bulb {BasedOnField A3}
  84059,                                  ! Barometric Pressure {Pa}
  4.1,                                    ! Wind Speed {m/s}
  240,                                    ! Wind Direction {deg}
  0,                                      ! Sky Clearness
  0,                                      ! Rain Indicator
  0,                                      ! Snow Indicator
  21,                                     ! Day of Month
  7,                                      ! Month
  SummerDesignDay,                        ! Day Type
  0,                                      ! Daylight Saving Time Indicator
  Wetbulb,                                ! Humidity Indicating Type
  ,                                       ! Humidity Indicating Day Schedule Name
  DefaultMultipliers,                     ! Dry-Bulb Temperature Range Modifier Type
  ,                                       ! Dry-Bulb Temperature Range Modifier Schedule Name
  ASHRAETau,                              ! Solar Model Indicator
  ,                                       ! Beam Solar Day Schedule Name
  ,                                       ! Diffuse Solar Day Schedule Name
  0.446,                                  ! ASHRAE Taub {dimensionless}
  1.888;                                  ! ASHRAE Taud {dimensionless}

OS:ComponentData,
  {777efabe-ab17-435f-a69f-c5969d3058de}, ! Handle
  Component Data 1,                       ! Name
  {4e2f9935-7d88-46a1-8a44-3628e80e69d6}, ! UUID
  {6b94ec53-cb60-4b2d-85d1-5af585bd037f}, ! Version UUID
  1366309467,                             ! Creation Timestamp
  1366309467,                             ! Version Timestamp
  {43c6b1ab-b909-4669-8fba-48df48ac1f1a}; ! Name of Object 1

