
OS:Version,
  {ed614c4b-33e4-4ec0-acea-67d8faa75bd1}, ! Handle
  0.9.3;                                  ! Version Identifier

OS:SizingPeriod:DesignDay,
  {c506c551-aff3-4ed5-a95a-39e5960406a9}, ! Handle
  Jacksonville/Int'l Air Ann Clg 2% Condns WB=>MDB, ! Name
  30.6,                                   ! Maximum Dry-Bulb Temperature {C}
  10,                                     ! Daily Dry-Bulb Temperature Range {deltaC}
  25.8,                                   ! Humidity Indicating Conditions at Maximum Dry-Bulb {BasedOnField A3}
  101217,                                 ! Barometric Pressure {Pa}
  3.6,                                    ! Wind Speed {m/s}
  260,                                    ! Wind Direction {deg}
  0,                                      ! Sky Clearness
  0,                                      ! Rain Indicator
  0,                                      ! Snow Indicator
  21,                                     ! Day of Month
  7,                                      ! Month
  SummerDesignDay,                        ! Day Type
  0,                                      ! Daylight Saving Time Indicator
  Wetbulb,                                ! Humidity Indicating Type
  ,                                       ! Humidity Indicating Day Schedule Name
  DefaultMultipliers,                     ! Dry-Bulb Temperature Range Modifier Type
  ,                                       ! Dry-Bulb Temperature Range Modifier Schedule Name
  ASHRAETau,                              ! Solar Model Indicator
  ,                                       ! Beam Solar Day Schedule Name
  ,                                       ! Diffuse Solar Day Schedule Name
  0.541,                                  ! ASHRAE Taub {dimensionless}
  1.863;                                  ! ASHRAE Taud {dimensionless}

OS:ComponentData,
  {7a48beb0-0917-4a30-9f4a-69c3a623cb16}, ! Handle
  Component Data 1,                       ! Name
  {0e4a70ec-9196-427a-81a0-319c3eb3cd4f}, ! UUID
  {c6ec5bd3-4920-4a7b-9852-638dcf4020f7}, ! Version UUID
  1366306820,                             ! Creation Timestamp
  1366306820,                             ! Version Timestamp
  {c506c551-aff3-4ed5-a95a-39e5960406a9}; ! Name of Object 1

