
OS:Version,
  {43ece674-1130-402d-8e69-57d2db569db8}, ! Handle
  0.9.3;                                  ! Version Identifier

OS:SizingPeriod:DesignDay,
  {e9f70006-5c20-4204-a0c1-953d0f8cc992}, ! Handle
  Luke Afb Ann Clg .4% Condns DB=>MWB,    ! Name
  43.8,                                   ! Maximum Dry-Bulb Temperature {C}
  14.2,                                   ! Daily Dry-Bulb Temperature Range {deltaC}
  21.5,                                   ! Humidity Indicating Conditions at Maximum Dry-Bulb {BasedOnField A3}
  97411,                                  ! Barometric Pressure {Pa}
  4.9,                                    ! Wind Speed {m/s}
  220,                                    ! Wind Direction {deg}
  0,                                      ! Sky Clearness
  0,                                      ! Rain Indicator
  0,                                      ! Snow Indicator
  21,                                     ! Day of Month
  7,                                      ! Month
  SummerDesignDay,                        ! Day Type
  0,                                      ! Daylight Saving Time Indicator
  Wetbulb,                                ! Humidity Indicating Type
  ,                                       ! Humidity Indicating Day Schedule Name
  DefaultMultipliers,                     ! Dry-Bulb Temperature Range Modifier Type
  ,                                       ! Dry-Bulb Temperature Range Modifier Schedule Name
  ASHRAETau,                              ! Solar Model Indicator
  ,                                       ! Beam Solar Day Schedule Name
  ,                                       ! Diffuse Solar Day Schedule Name
  0.597,                                  ! ASHRAE Taub {dimensionless}
  1.622;                                  ! ASHRAE Taud {dimensionless}

OS:ComponentData,
  {2f5dcf33-b637-47c3-81b8-03543bef33a4}, ! Handle
  Component Data 1,                       ! Name
  {a823d4c0-dedb-436c-a0ab-adb59fa31216}, ! UUID
  {6959616f-914c-4d25-8ec8-6fdcfbc80ab7}, ! Version UUID
  1366306284,                             ! Creation Timestamp
  1366306284,                             ! Version Timestamp
  {e9f70006-5c20-4204-a0c1-953d0f8cc992}; ! Name of Object 1

