
OS:Version,
  {255151c0-3b46-4df0-9eb4-81109f9eb423}, ! Handle
  0.9.3;                                  ! Version Identifier

OS:SizingPeriod:DesignDay,
  {191b4eab-f2d3-47ad-a126-fa2a8a0953b6}, ! Handle
  Columbia Metro Arpt Ann Clg .4% Condns WB=>MDB, ! Name
  32.2,                                   ! Maximum Dry-Bulb Temperature {C}
  11.1,                                   ! Daily Dry-Bulb Temperature Range {deltaC}
  25.8,                                   ! Humidity Indicating Conditions at Maximum Dry-Bulb {BasedOnField A3}
  100547,                                 ! Barometric Pressure {Pa}
  3.9,                                    ! Wind Speed {m/s}
  240,                                    ! Wind Direction {deg}
  0,                                      ! Sky Clearness
  0,                                      ! Rain Indicator
  0,                                      ! Snow Indicator
  21,                                     ! Day of Month
  7,                                      ! Month
  SummerDesignDay,                        ! Day Type
  0,                                      ! Daylight Saving Time Indicator
  Wetbulb,                                ! Humidity Indicating Type
  ,                                       ! Humidity Indicating Day Schedule Name
  DefaultMultipliers,                     ! Dry-Bulb Temperature Range Modifier Type
  ,                                       ! Dry-Bulb Temperature Range Modifier Schedule Name
  ASHRAETau,                              ! Solar Model Indicator
  ,                                       ! Beam Solar Day Schedule Name
  ,                                       ! Diffuse Solar Day Schedule Name
  0.566,                                  ! ASHRAE Taub {dimensionless}
  1.764;                                  ! ASHRAE Taud {dimensionless}

OS:ComponentData,
  {374c6f20-dc51-4002-8ef3-c2d773acc976}, ! Handle
  Component Data 1,                       ! Name
  {e279b10f-760b-451a-8305-683af3f88ec9}, ! UUID
  {66d1740b-3b58-4745-88ff-cf98825c07b2}, ! Version UUID
  1366310348,                             ! Creation Timestamp
  1366310348,                             ! Version Timestamp
  {191b4eab-f2d3-47ad-a126-fa2a8a0953b6}; ! Name of Object 1

