
OS:Version,
  {033f24b7-9c93-4d1d-af92-131cecc69d2f}, ! Handle
  0.9.3;                                  ! Version Identifier

OS:SizingPeriod:DesignDay,
  {650c6390-b0a5-4ea6-855f-2589cbcca590}, ! Handle
  Faribault Muni Awos Ann Clg .4% Condns WB=>MDB, ! Name
  30.1,                                   ! Maximum Dry-Bulb Temperature {C}
  10.9,                                   ! Daily Dry-Bulb Temperature Range {deltaC}
  25.7,                                   ! Humidity Indicating Conditions at Maximum Dry-Bulb {BasedOnField A3}
  97516,                                  ! Barometric Pressure {Pa}
  4.9,                                    ! Wind Speed {m/s}
  200,                                    ! Wind Direction {deg}
  0,                                      ! Sky Clearness
  0,                                      ! Rain Indicator
  0,                                      ! Snow Indicator
  21,                                     ! Day of Month
  7,                                      ! Month
  SummerDesignDay,                        ! Day Type
  0,                                      ! Daylight Saving Time Indicator
  Wetbulb,                                ! Humidity Indicating Type
  ,                                       ! Humidity Indicating Day Schedule Name
  DefaultMultipliers,                     ! Dry-Bulb Temperature Range Modifier Type
  ,                                       ! Dry-Bulb Temperature Range Modifier Schedule Name
  ASHRAETau,                              ! Solar Model Indicator
  ,                                       ! Beam Solar Day Schedule Name
  ,                                       ! Diffuse Solar Day Schedule Name
  0.414,                                  ! ASHRAE Taub {dimensionless}
  2.19;                                   ! ASHRAE Taud {dimensionless}

OS:ComponentData,
  {532d7a50-8ccd-451b-809c-5febdba03d66}, ! Handle
  Component Data 1,                       ! Name
  {586937d1-ab59-49ba-889d-6cd44bb3fc70}, ! UUID
  {02ed38a1-7c8c-4b1e-b443-70269f70b254}, ! Version UUID
  1366308229,                             ! Creation Timestamp
  1366308229,                             ! Version Timestamp
  {650c6390-b0a5-4ea6-855f-2589cbcca590}; ! Name of Object 1

