
OS:Version,
  {2f46a4c4-d2ed-45d1-9848-b845dee7483e}, ! Handle
  0.9.3;                                  ! Version Identifier

OS:SizingPeriod:DesignDay,
  {079ae5fd-e1f5-4ffe-b7a4-29de9f640dc0}, ! Handle
  Glen Burnie/Baltimore/ Ann Htg Wind 99.6% Condns WS=>MCDB, ! Name
  -0.2,                                   ! Maximum Dry-Bulb Temperature {C}
  0,                                      ! Daily Dry-Bulb Temperature Range {deltaC}
  -0.2,                                   ! Humidity Indicating Conditions at Maximum Dry-Bulb {BasedOnField A3}
  100762,                                 ! Barometric Pressure {Pa}
  11.7,                                   ! Wind Speed {m/s}
  290,                                    ! Wind Direction {deg}
  0,                                      ! Sky Clearness
  0,                                      ! Rain Indicator
  0,                                      ! Snow Indicator
  21,                                     ! Day of Month
  1,                                      ! Month
  WinterDesignDay,                        ! Day Type
  0,                                      ! Daylight Saving Time Indicator
  Wetbulb,                                ! Humidity Indicating Type
  ,                                       ! Humidity Indicating Day Schedule Name
  DefaultMultipliers,                     ! Dry-Bulb Temperature Range Modifier Type
  ,                                       ! Dry-Bulb Temperature Range Modifier Schedule Name
  ASHRAEClearSky;                         ! Solar Model Indicator

OS:ComponentData,
  {2cf1c63f-b80e-455b-b172-a1de39ad9008}, ! Handle
  Component Data 1,                       ! Name
  {c05660eb-a876-4b0b-9245-0669595ceb47}, ! UUID
  {dff60ad1-be06-4439-b661-732c3f10d4e3}, ! Version UUID
  1366307837,                             ! Creation Timestamp
  1366307837,                             ! Version Timestamp
  {079ae5fd-e1f5-4ffe-b7a4-29de9f640dc0}; ! Name of Object 1

