
OS:Version,
  {88519dc9-5060-4427-84ab-9ce1f9cefe2d}, ! Handle
  0.9.3;                                  ! Version Identifier

OS:SizingPeriod:DesignDay,
  {e9a06787-bf83-420d-ab1f-95b93aa13af3}, ! Handle
  Islip Long Isl Macarthur Ap Ann Htg Wind 99% Condns WS=>MCDB, ! Name
  -0.9,                                   ! Maximum Dry-Bulb Temperature {C}
  0,                                      ! Daily Dry-Bulb Temperature Range {deltaC}
  -0.9,                                   ! Humidity Indicating Conditions at Maximum Dry-Bulb {BasedOnField A3}
  101013,                                 ! Barometric Pressure {Pa}
  11.1,                                   ! Wind Speed {m/s}
  340,                                    ! Wind Direction {deg}
  0,                                      ! Sky Clearness
  0,                                      ! Rain Indicator
  0,                                      ! Snow Indicator
  21,                                     ! Day of Month
  1,                                      ! Month
  WinterDesignDay,                        ! Day Type
  0,                                      ! Daylight Saving Time Indicator
  Wetbulb,                                ! Humidity Indicating Type
  ,                                       ! Humidity Indicating Day Schedule Name
  DefaultMultipliers,                     ! Dry-Bulb Temperature Range Modifier Type
  ,                                       ! Dry-Bulb Temperature Range Modifier Schedule Name
  ASHRAEClearSky;                         ! Solar Model Indicator

OS:ComponentData,
  {2e70f0cc-c9e9-47d8-93c6-b876848dc13c}, ! Handle
  Component Data 1,                       ! Name
  {9a984936-6b9e-4e7d-acce-facdc22896fb}, ! UUID
  {1b3dd810-c910-4fa0-b6b3-98a600fc89c9}, ! Version UUID
  1366309630,                             ! Creation Timestamp
  1366309630,                             ! Version Timestamp
  {e9a06787-bf83-420d-ab1f-95b93aa13af3}; ! Name of Object 1

