
OS:Version,
  {cb3fabef-d5df-4a50-97ef-8822675f76cb}, ! Handle
  0.9.3;                                  ! Version Identifier

OS:SizingPeriod:DesignDay,
  {04a6ba8f-9654-44cb-88f2-6bd1a56c180b}, ! Handle
  Dover Afb Ann Htg 99.6% Condns DB,      ! Name
  -10.1,                                  ! Maximum Dry-Bulb Temperature {C}
  0,                                      ! Daily Dry-Bulb Temperature Range {deltaC}
  -10.1,                                  ! Humidity Indicating Conditions at Maximum Dry-Bulb {BasedOnField A3}
  101241,                                 ! Barometric Pressure {Pa}
  4.2,                                    ! Wind Speed {m/s}
  330,                                    ! Wind Direction {deg}
  0,                                      ! Sky Clearness
  0,                                      ! Rain Indicator
  0,                                      ! Snow Indicator
  21,                                     ! Day of Month
  1,                                      ! Month
  WinterDesignDay,                        ! Day Type
  0,                                      ! Daylight Saving Time Indicator
  Wetbulb,                                ! Humidity Indicating Type
  ,                                       ! Humidity Indicating Day Schedule Name
  DefaultMultipliers,                     ! Dry-Bulb Temperature Range Modifier Type
  ,                                       ! Dry-Bulb Temperature Range Modifier Schedule Name
  ASHRAEClearSky;                         ! Solar Model Indicator

OS:ComponentData,
  {8b710cf9-16a8-4543-aa85-9d4082f2089d}, ! Handle
  Component Data 1,                       ! Name
  {e71c0a0c-7b1c-48ed-a08e-520e7a9ae841}, ! UUID
  {1996cb3a-5b2f-4db7-b522-a888eebd31a3}, ! Version UUID
  1366306769,                             ! Creation Timestamp
  1366306769,                             ! Version Timestamp
  {04a6ba8f-9654-44cb-88f2-6bd1a56c180b}; ! Name of Object 1

