
OS:Version,
  {b22fe92f-d91b-4ffd-bd5c-32b68deb3009}, ! Handle
  0.9.3;                                  ! Version Identifier

OS:SizingPeriod:DesignDay,
  {cfdb8996-33bb-4f49-b0ed-11d68dd5120f}, ! Handle
  La Junta Municipal Ap Ann Htg 99% Condns DB, ! Name
  -13.8,                                  ! Maximum Dry-Bulb Temperature {C}
  0,                                      ! Daily Dry-Bulb Temperature Range {deltaC}
  -13.8,                                  ! Humidity Indicating Conditions at Maximum Dry-Bulb {BasedOnField A3}
  86853,                                  ! Barometric Pressure {Pa}
  3.8,                                    ! Wind Speed {m/s}
  270,                                    ! Wind Direction {deg}
  0,                                      ! Sky Clearness
  0,                                      ! Rain Indicator
  0,                                      ! Snow Indicator
  21,                                     ! Day of Month
  12,                                     ! Month
  WinterDesignDay,                        ! Day Type
  0,                                      ! Daylight Saving Time Indicator
  Wetbulb,                                ! Humidity Indicating Type
  ,                                       ! Humidity Indicating Day Schedule Name
  DefaultMultipliers,                     ! Dry-Bulb Temperature Range Modifier Type
  ,                                       ! Dry-Bulb Temperature Range Modifier Schedule Name
  ASHRAEClearSky;                         ! Solar Model Indicator

OS:ComponentData,
  {54b35902-e53a-430c-bc4f-4e8569813962}, ! Handle
  Component Data 1,                       ! Name
  {805e568a-4eac-40c3-94c7-0f87949c647b}, ! UUID
  {08b192d3-38c1-47ff-8d02-ac7ccc65ccab}, ! Version UUID
  1366306714,                             ! Creation Timestamp
  1366306714,                             ! Version Timestamp
  {cfdb8996-33bb-4f49-b0ed-11d68dd5120f}; ! Name of Object 1

