
OS:Version,
  {56020ee1-56fe-4258-9938-ab3050db7137}, ! Handle
  0.9.3;                                  ! Version Identifier

OS:SizingPeriod:DesignDay,
  {7aa71412-05fe-4a53-994d-15ba5f45cbbb}, ! Handle
  Keokuk Muni Ann Clg 2% Condns WB=>MDB,  ! Name
  30.9,                                   ! Maximum Dry-Bulb Temperature {C}
  10,                                     ! Daily Dry-Bulb Temperature Range {deltaC}
  25.5,                                   ! Humidity Indicating Conditions at Maximum Dry-Bulb {BasedOnField A3}
  98886,                                  ! Barometric Pressure {Pa}
  4,                                      ! Wind Speed {m/s}
  210,                                    ! Wind Direction {deg}
  0,                                      ! Sky Clearness
  0,                                      ! Rain Indicator
  0,                                      ! Snow Indicator
  21,                                     ! Day of Month
  7,                                      ! Month
  SummerDesignDay,                        ! Day Type
  0,                                      ! Daylight Saving Time Indicator
  Wetbulb,                                ! Humidity Indicating Type
  ,                                       ! Humidity Indicating Day Schedule Name
  DefaultMultipliers,                     ! Dry-Bulb Temperature Range Modifier Type
  ,                                       ! Dry-Bulb Temperature Range Modifier Schedule Name
  ASHRAETau,                              ! Solar Model Indicator
  ,                                       ! Beam Solar Day Schedule Name
  ,                                       ! Diffuse Solar Day Schedule Name
  0.455,                                  ! ASHRAE Taub {dimensionless}
  2.055;                                  ! ASHRAE Taud {dimensionless}

OS:ComponentData,
  {051a6fa9-3ac6-4362-992b-ef1b39e4f4a4}, ! Handle
  Component Data 1,                       ! Name
  {7f1062ce-817e-41cf-84e1-79fcf0a9d27a}, ! UUID
  {06784540-370b-4ba8-b54a-838332d5f6ce}, ! Version UUID
  1366307202,                             ! Creation Timestamp
  1366307202,                             ! Version Timestamp
  {7aa71412-05fe-4a53-994d-15ba5f45cbbb}; ! Name of Object 1

