
OS:Version,
  {d6a79ced-5203-4b77-9f83-3e944e2e404a}, ! Handle
  0.9.3;                                  ! Version Identifier

OS:SizingPeriod:DesignDay,
  {cb17849d-0891-43a6-af36-58ea4239672f}, ! Handle
  Fort Worth Alliance Ann Htg Wind 99% Condns WS=>MCDB, ! Name
  11.2,                                   ! Maximum Dry-Bulb Temperature {C}
  0,                                      ! Daily Dry-Bulb Temperature Range {deltaC}
  11.2,                                   ! Humidity Indicating Conditions at Maximum Dry-Bulb {BasedOnField A3}
  98639,                                  ! Barometric Pressure {Pa}
  11.1,                                   ! Wind Speed {m/s}
  0,                                      ! Wind Direction {deg}
  0,                                      ! Sky Clearness
  0,                                      ! Rain Indicator
  0,                                      ! Snow Indicator
  21,                                     ! Day of Month
  1,                                      ! Month
  WinterDesignDay,                        ! Day Type
  0,                                      ! Daylight Saving Time Indicator
  Wetbulb,                                ! Humidity Indicating Type
  ,                                       ! Humidity Indicating Day Schedule Name
  DefaultMultipliers,                     ! Dry-Bulb Temperature Range Modifier Type
  ,                                       ! Dry-Bulb Temperature Range Modifier Schedule Name
  ASHRAEClearSky;                         ! Solar Model Indicator

OS:ComponentData,
  {8b3e4d9e-e65f-43e2-9b82-0df5c51b4216}, ! Handle
  Component Data 1,                       ! Name
  {4e3d47aa-ddf3-4a39-b3e7-1e1b10900790}, ! UUID
  {0388a5f0-8c15-4859-a948-d9524d2dc4ac}, ! Version UUID
  1366310697,                             ! Creation Timestamp
  1366310697,                             ! Version Timestamp
  {cb17849d-0891-43a6-af36-58ea4239672f}; ! Name of Object 1

