
OS:Version,
  {d16e8ee8-6b79-4669-b9df-4267fba6c2c0}, ! Handle
  0.9.3;                                  ! Version Identifier

OS:SizingPeriod:DesignDay,
  {26dee37f-3b7f-49f0-a745-025cc7e0998d}, ! Handle
  Glenwood  Asos Ann Htg 99% Condns DB,   ! Name
  -23.8,                                  ! Maximum Dry-Bulb Temperature {C}
  0,                                      ! Daily Dry-Bulb Temperature Range {deltaC}
  -23.8,                                  ! Humidity Indicating Conditions at Maximum Dry-Bulb {BasedOnField A3}
  96322,                                  ! Barometric Pressure {Pa}
  3.5,                                    ! Wind Speed {m/s}
  260,                                    ! Wind Direction {deg}
  0,                                      ! Sky Clearness
  0,                                      ! Rain Indicator
  0,                                      ! Snow Indicator
  21,                                     ! Day of Month
  1,                                      ! Month
  WinterDesignDay,                        ! Day Type
  0,                                      ! Daylight Saving Time Indicator
  Wetbulb,                                ! Humidity Indicating Type
  ,                                       ! Humidity Indicating Day Schedule Name
  DefaultMultipliers,                     ! Dry-Bulb Temperature Range Modifier Type
  ,                                       ! Dry-Bulb Temperature Range Modifier Schedule Name
  ASHRAEClearSky;                         ! Solar Model Indicator

OS:ComponentData,
  {c9ef429b-86f4-4855-8fbd-b88b17b531b7}, ! Handle
  Component Data 1,                       ! Name
  {a588f54e-ace8-4920-bfd2-c628df73ea96}, ! UUID
  {4780606e-491d-41db-a74d-d42139fea0d3}, ! Version UUID
  1366308241,                             ! Creation Timestamp
  1366308241,                             ! Version Timestamp
  {26dee37f-3b7f-49f0-a745-025cc7e0998d}; ! Name of Object 1

