
OS:Version,
  {5731b207-0f90-4886-92ae-3b581ec57e56}, ! Handle
  0.9.3;                                  ! Version Identifier

OS:SizingPeriod:DesignDay,
  {037e2466-262b-4daa-8be1-d224eb97d31e}, ! Handle
  Dubois Faa Ap Ann Clg .4% Condns Enth=>MDB, ! Name
  27.1,                                   ! Maximum Dry-Bulb Temperature {C}
  10.4,                                   ! Daily Dry-Bulb Temperature Range {deltaC}
  68900,                                  ! Humidity Indicating Conditions at Maximum Dry-Bulb {BasedOnField A3}
  94856,                                  ! Barometric Pressure {Pa}
  4.4,                                    ! Wind Speed {m/s}
  250,                                    ! Wind Direction {deg}
  0,                                      ! Sky Clearness
  0,                                      ! Rain Indicator
  0,                                      ! Snow Indicator
  21,                                     ! Day of Month
  7,                                      ! Month
  SummerDesignDay,                        ! Day Type
  0,                                      ! Daylight Saving Time Indicator
  Enthalpy,                               ! Humidity Indicating Type
  ,                                       ! Humidity Indicating Day Schedule Name
  DefaultMultipliers,                     ! Dry-Bulb Temperature Range Modifier Type
  ,                                       ! Dry-Bulb Temperature Range Modifier Schedule Name
  ASHRAETau,                              ! Solar Model Indicator
  ,                                       ! Beam Solar Day Schedule Name
  ,                                       ! Diffuse Solar Day Schedule Name
  0.441,                                  ! ASHRAE Taub {dimensionless}
  2.051;                                  ! ASHRAE Taud {dimensionless}

OS:ComponentData,
  {27a2b9e1-2b60-4394-87ba-95b521b241fa}, ! Handle
  Component Data 1,                       ! Name
  {d5bc4130-e22d-4c00-88bf-03a7cac97b3d}, ! UUID
  {140570e2-ee33-4756-8782-ae36dffb333f}, ! Version UUID
  1366310161,                             ! Creation Timestamp
  1366310161,                             ! Version Timestamp
  {037e2466-262b-4daa-8be1-d224eb97d31e}; ! Name of Object 1

