
OS:Version,
  {4b9fe512-263b-4c27-bf62-39970724db95}, ! Handle
  0.9.3;                                  ! Version Identifier

OS:SizingPeriod:DesignDay,
  {da981e81-f54e-4c84-8b24-0341ee97c7f3}, ! Handle
  Barksdale Afb Ann Clg 1% Condns WB=>MDB, ! Name
  31.8,                                   ! Maximum Dry-Bulb Temperature {C}
  10.5,                                   ! Daily Dry-Bulb Temperature Range {deltaC}
  26,                                     ! Humidity Indicating Conditions at Maximum Dry-Bulb {BasedOnField A3}
  100678,                                 ! Barometric Pressure {Pa}
  2.6,                                    ! Wind Speed {m/s}
  180,                                    ! Wind Direction {deg}
  0,                                      ! Sky Clearness
  0,                                      ! Rain Indicator
  0,                                      ! Snow Indicator
  21,                                     ! Day of Month
  7,                                      ! Month
  SummerDesignDay,                        ! Day Type
  0,                                      ! Daylight Saving Time Indicator
  Wetbulb,                                ! Humidity Indicating Type
  ,                                       ! Humidity Indicating Day Schedule Name
  DefaultMultipliers,                     ! Dry-Bulb Temperature Range Modifier Type
  ,                                       ! Dry-Bulb Temperature Range Modifier Schedule Name
  ASHRAETau,                              ! Solar Model Indicator
  ,                                       ! Beam Solar Day Schedule Name
  ,                                       ! Diffuse Solar Day Schedule Name
  0.492,                                  ! ASHRAE Taub {dimensionless}
  2.007;                                  ! ASHRAE Taud {dimensionless}

OS:ComponentData,
  {14229240-127c-46b3-b0f5-6f8f35ebdafc}, ! Handle
  Component Data 1,                       ! Name
  {9045f4a8-ad74-484b-b235-3cf8826328b3}, ! UUID
  {12e365a0-1f1c-4ad2-8e58-53fae74495bd}, ! Version UUID
  1366307700,                             ! Creation Timestamp
  1366307700,                             ! Version Timestamp
  {da981e81-f54e-4c84-8b24-0341ee97c7f3}; ! Name of Object 1

