
OS:Version,
  {f3215c7e-790f-4981-ad51-c38057b2934f}, ! Handle
  0.9.3;                                  ! Version Identifier

OS:SizingPeriod:DesignDay,
  {d7aeb4b4-b50d-40a5-bde1-d52e100f8944}, ! Handle
  Buffalo Niagara Intl Ap Ann Htg Wind 99% Condns WS=>MCDB, ! Name
  -2.9,                                   ! Maximum Dry-Bulb Temperature {C}
  0,                                      ! Daily Dry-Bulb Temperature Range {deltaC}
  -2.9,                                   ! Humidity Indicating Conditions at Maximum Dry-Bulb {BasedOnField A3}
  98769,                                  ! Barometric Pressure {Pa}
  14.6,                                   ! Wind Speed {m/s}
  270,                                    ! Wind Direction {deg}
  0,                                      ! Sky Clearness
  0,                                      ! Rain Indicator
  0,                                      ! Snow Indicator
  21,                                     ! Day of Month
  1,                                      ! Month
  WinterDesignDay,                        ! Day Type
  0,                                      ! Daylight Saving Time Indicator
  Wetbulb,                                ! Humidity Indicating Type
  ,                                       ! Humidity Indicating Day Schedule Name
  DefaultMultipliers,                     ! Dry-Bulb Temperature Range Modifier Type
  ,                                       ! Dry-Bulb Temperature Range Modifier Schedule Name
  ASHRAEClearSky;                         ! Solar Model Indicator

OS:ComponentData,
  {a8ba18db-d789-4895-a0f4-0152297957dc}, ! Handle
  Component Data 1,                       ! Name
  {6cc0a27a-5042-420e-b48b-dada77dae243}, ! UUID
  {6864ecd1-0c57-4b1c-a1f2-7bd20125fc4e}, ! Version UUID
  1366309607,                             ! Creation Timestamp
  1366309607,                             ! Version Timestamp
  {d7aeb4b4-b50d-40a5-bde1-d52e100f8944}; ! Name of Object 1

