
OS:Version,
  {833641b9-9ce9-4dbf-b60a-2bfe3d48005a}, ! Handle
  0.9.3;                                  ! Version Identifier

OS:SizingPeriod:DesignDay,
  {a79ff2b1-f9d9-4963-9204-0ee10c3f70b3}, ! Handle
  Columbus Muni Ann Clg .4% Condns WB=>MDB, ! Name
  31.8,                                   ! Maximum Dry-Bulb Temperature {C}
  11.3,                                   ! Daily Dry-Bulb Temperature Range {deltaC}
  25.5,                                   ! Humidity Indicating Conditions at Maximum Dry-Bulb {BasedOnField A3}
  96023,                                  ! Barometric Pressure {Pa}
  5.4,                                    ! Wind Speed {m/s}
  180,                                    ! Wind Direction {deg}
  0,                                      ! Sky Clearness
  0,                                      ! Rain Indicator
  0,                                      ! Snow Indicator
  21,                                     ! Day of Month
  7,                                      ! Month
  SummerDesignDay,                        ! Day Type
  0,                                      ! Daylight Saving Time Indicator
  Wetbulb,                                ! Humidity Indicating Type
  ,                                       ! Humidity Indicating Day Schedule Name
  DefaultMultipliers,                     ! Dry-Bulb Temperature Range Modifier Type
  ,                                       ! Dry-Bulb Temperature Range Modifier Schedule Name
  ASHRAETau,                              ! Solar Model Indicator
  ,                                       ! Beam Solar Day Schedule Name
  ,                                       ! Diffuse Solar Day Schedule Name
  0.407,                                  ! ASHRAE Taub {dimensionless}
  2.237;                                  ! ASHRAE Taud {dimensionless}

OS:ComponentData,
  {8dd74f2c-d604-4bf0-910e-ee9ae75d3a15}, ! Handle
  Component Data 1,                       ! Name
  {4ee5108b-8a41-4c88-818e-6139376ded41}, ! UUID
  {4fee81f9-6ab1-4bf4-9e16-d7973cb2135d}, ! Version UUID
  1366309097,                             ! Creation Timestamp
  1366309097,                             ! Version Timestamp
  {a79ff2b1-f9d9-4963-9204-0ee10c3f70b3}; ! Name of Object 1

