
OS:Version,
  {52cc1e39-6527-4b99-b988-98f07668f478}, ! Handle
  0.9.3;                                  ! Version Identifier

OS:SizingPeriod:DesignDay,
  {2f2f4642-7491-41a4-9b46-32bcbbdae902}, ! Handle
  Houston Bush Intercontinental Ann Clg 2% Condns DP=>MDB, ! Name
  27.9,                                   ! Maximum Dry-Bulb Temperature {C}
  10.1,                                   ! Daily Dry-Bulb Temperature Range {deltaC}
  24.7,                                   ! Humidity Indicating Conditions at Maximum Dry-Bulb {BasedOnField A3}
  100977,                                 ! Barometric Pressure {Pa}
  3.5,                                    ! Wind Speed {m/s}
  170,                                    ! Wind Direction {deg}
  0,                                      ! Sky Clearness
  0,                                      ! Rain Indicator
  0,                                      ! Snow Indicator
  21,                                     ! Day of Month
  7,                                      ! Month
  SummerDesignDay,                        ! Day Type
  0,                                      ! Daylight Saving Time Indicator
  Dewpoint,                               ! Humidity Indicating Type
  ,                                       ! Humidity Indicating Day Schedule Name
  DefaultMultipliers,                     ! Dry-Bulb Temperature Range Modifier Type
  ,                                       ! Dry-Bulb Temperature Range Modifier Schedule Name
  ASHRAETau,                              ! Solar Model Indicator
  ,                                       ! Beam Solar Day Schedule Name
  ,                                       ! Diffuse Solar Day Schedule Name
  0.499,                                  ! ASHRAE Taub {dimensionless}
  1.97;                                   ! ASHRAE Taud {dimensionless}

OS:ComponentData,
  {d106148f-8667-4ff3-af7e-6ea8495fb35b}, ! Handle
  Component Data 1,                       ! Name
  {2f3c91b5-5b3a-4c78-ae88-3c82dfdd9a33}, ! UUID
  {7a9fc3be-d375-4843-89d2-6ca5b18691a9}, ! Version UUID
  1366310744,                             ! Creation Timestamp
  1366310744,                             ! Version Timestamp
  {2f2f4642-7491-41a4-9b46-32bcbbdae902}; ! Name of Object 1

