
OS:Version,
  {3191f289-f3d5-4c87-9d36-84524f5100d2}, ! Handle
  0.9.3;                                  ! Version Identifier

OS:SizingPeriod:DesignDay,
  {14e99907-4043-4103-9cbd-217ef338764b}, ! Handle
  ERIE Ann Htg 99% Condns DB,             ! Name
  -12.4,                                  ! Maximum Dry-Bulb Temperature {C}
  0,                                      ! Daily Dry-Bulb Temperature Range {deltaC}
  -12.4,                                  ! Humidity Indicating Conditions at Maximum Dry-Bulb {BasedOnField A3}
  98651,                                  ! Barometric Pressure {Pa}
  5,                                      ! Wind Speed {m/s}
  190,                                    ! Wind Direction {deg}
  0,                                      ! Sky Clearness
  0,                                      ! Rain Indicator
  0,                                      ! Snow Indicator
  21,                                     ! Day of Month
  1,                                      ! Month
  WinterDesignDay,                        ! Day Type
  0,                                      ! Daylight Saving Time Indicator
  Wetbulb,                                ! Humidity Indicating Type
  ,                                       ! Humidity Indicating Day Schedule Name
  DefaultMultipliers,                     ! Dry-Bulb Temperature Range Modifier Type
  ,                                       ! Dry-Bulb Temperature Range Modifier Schedule Name
  ASHRAEClearSky;                         ! Solar Model Indicator

OS:ComponentData,
  {a21b219a-0a2c-49cf-9da3-2e6f2c53f15a}, ! Handle
  Component Data 1,                       ! Name
  {7e80495b-8c3e-465d-a4c8-94bafc974f15}, ! UUID
  {b81f734d-9aa9-4839-85b2-5461d8879515}, ! Version UUID
  1366310163,                             ! Creation Timestamp
  1366310163,                             ! Version Timestamp
  {14e99907-4043-4103-9cbd-217ef338764b}; ! Name of Object 1

