
OS:Version,
  {67f9c2ef-5f94-4c0d-bd7b-82e506556d1a}, ! Handle
  0.9.3;                                  ! Version Identifier

OS:SizingPeriod:DesignDay,
  {d41de823-fd7f-45b1-b92d-6a65de1e98b2}, ! Handle
  JACKSON Ann Htg Wind 99% Condns WS=>MCDB, ! Name
  9,                                      ! Maximum Dry-Bulb Temperature {C}
  0,                                      ! Daily Dry-Bulb Temperature Range {deltaC}
  9,                                      ! Humidity Indicating Conditions at Maximum Dry-Bulb {BasedOnField A3}
  100118,                                 ! Barometric Pressure {Pa}
  8.9,                                    ! Wind Speed {m/s}
  350,                                    ! Wind Direction {deg}
  0,                                      ! Sky Clearness
  0,                                      ! Rain Indicator
  0,                                      ! Snow Indicator
  21,                                     ! Day of Month
  1,                                      ! Month
  WinterDesignDay,                        ! Day Type
  0,                                      ! Daylight Saving Time Indicator
  Wetbulb,                                ! Humidity Indicating Type
  ,                                       ! Humidity Indicating Day Schedule Name
  DefaultMultipliers,                     ! Dry-Bulb Temperature Range Modifier Type
  ,                                       ! Dry-Bulb Temperature Range Modifier Schedule Name
  ASHRAEClearSky;                         ! Solar Model Indicator

OS:ComponentData,
  {ad4febc1-4515-44e5-a7e3-5e283784ae49}, ! Handle
  Component Data 1,                       ! Name
  {5ae7c46e-4300-4a9a-99c6-518f35ebcfcf}, ! UUID
  {a500003d-2eec-4e49-bbab-6581d5b8de7d}, ! Version UUID
  1366308638,                             ! Creation Timestamp
  1366308638,                             ! Version Timestamp
  {d41de823-fd7f-45b1-b92d-6a65de1e98b2}; ! Name of Object 1

