
OS:Version,
  {b67b8bc5-a210-414d-8110-b9217f1221f8}, ! Handle
  0.9.3;                                  ! Version Identifier

OS:SizingPeriod:DesignDay,
  {8aec9a00-3003-47df-9429-c3b8136214fe}, ! Handle
  Brookings  Awos Ann Htg Wind 99.6% Condns WS=>MCDB, ! Name
  -15.8,                                  ! Maximum Dry-Bulb Temperature {C}
  0,                                      ! Daily Dry-Bulb Temperature Range {deltaC}
  -15.8,                                  ! Humidity Indicating Conditions at Maximum Dry-Bulb {BasedOnField A3}
  95438,                                  ! Barometric Pressure {Pa}
  14.3,                                   ! Wind Speed {m/s}
  320,                                    ! Wind Direction {deg}
  0,                                      ! Sky Clearness
  0,                                      ! Rain Indicator
  0,                                      ! Snow Indicator
  21,                                     ! Day of Month
  1,                                      ! Month
  WinterDesignDay,                        ! Day Type
  0,                                      ! Daylight Saving Time Indicator
  Wetbulb,                                ! Humidity Indicating Type
  ,                                       ! Humidity Indicating Day Schedule Name
  DefaultMultipliers,                     ! Dry-Bulb Temperature Range Modifier Type
  ,                                       ! Dry-Bulb Temperature Range Modifier Schedule Name
  ASHRAEClearSky;                         ! Solar Model Indicator

OS:ComponentData,
  {985f212e-1f83-4e6d-b74a-bcfe1d4c00be}, ! Handle
  Component Data 1,                       ! Name
  {51de0f3a-3135-4dff-82dd-99a1ad39593b}, ! UUID
  {133da47e-af1b-46c9-bc2f-418b0223a82c}, ! Version UUID
  1366310388,                             ! Creation Timestamp
  1366310388,                             ! Version Timestamp
  {8aec9a00-3003-47df-9429-c3b8136214fe}; ! Name of Object 1

