
OS:Version,
  {075e4e25-50c2-458c-9fbf-0313e690b689}, ! Handle
  0.9.3;                                  ! Version Identifier

OS:SizingPeriod:DesignDay,
  {762ba94a-afd3-4de3-8169-0492a867e8cc}, ! Handle
  Houghton Lake Roscommon Co Ar Ann Clg .4% Condns DP=>MDB, ! Name
  26.8,                                   ! Maximum Dry-Bulb Temperature {C}
  12.8,                                   ! Daily Dry-Bulb Temperature Range {deltaC}
  22,                                     ! Humidity Indicating Conditions at Maximum Dry-Bulb {BasedOnField A3}
  97179,                                  ! Barometric Pressure {Pa}
  4.2,                                    ! Wind Speed {m/s}
  240,                                    ! Wind Direction {deg}
  0,                                      ! Sky Clearness
  0,                                      ! Rain Indicator
  0,                                      ! Snow Indicator
  21,                                     ! Day of Month
  7,                                      ! Month
  SummerDesignDay,                        ! Day Type
  0,                                      ! Daylight Saving Time Indicator
  Dewpoint,                               ! Humidity Indicating Type
  ,                                       ! Humidity Indicating Day Schedule Name
  DefaultMultipliers,                     ! Dry-Bulb Temperature Range Modifier Type
  ,                                       ! Dry-Bulb Temperature Range Modifier Schedule Name
  ASHRAETau,                              ! Solar Model Indicator
  ,                                       ! Beam Solar Day Schedule Name
  ,                                       ! Diffuse Solar Day Schedule Name
  0.413,                                  ! ASHRAE Taub {dimensionless}
  2.189;                                  ! ASHRAE Taud {dimensionless}

OS:ComponentData,
  {35bd35b7-c1c2-404b-82f5-11d1729f561d}, ! Handle
  Component Data 1,                       ! Name
  {fbcba80f-755c-4d86-8265-c1d4d5be3fa8}, ! UUID
  {36a317f1-aef9-4138-a6d5-6137c085a611}, ! Version UUID
  1366308026,                             ! Creation Timestamp
  1366308026,                             ! Version Timestamp
  {762ba94a-afd3-4de3-8169-0492a867e8cc}; ! Name of Object 1

