
OS:Version,
  {50c01050-83b7-4b7e-beed-86f207f8e857}, ! Handle
  0.9.3;                                  ! Version Identifier

OS:SizingPeriod:DesignDay,
  {2de50fe7-522f-4c15-aa0f-7392cdfadd76}, ! Handle
  Lansing Capital City Arpt Ann Clg 1% Condns WB=>MDB, ! Name
  28.3,                                   ! Maximum Dry-Bulb Temperature {C}
  12,                                     ! Daily Dry-Bulb Temperature Range {deltaC}
  23.7,                                   ! Humidity Indicating Conditions at Maximum Dry-Bulb {BasedOnField A3}
  98287,                                  ! Barometric Pressure {Pa}
  5.6,                                    ! Wind Speed {m/s}
  240,                                    ! Wind Direction {deg}
  0,                                      ! Sky Clearness
  0,                                      ! Rain Indicator
  0,                                      ! Snow Indicator
  21,                                     ! Day of Month
  7,                                      ! Month
  SummerDesignDay,                        ! Day Type
  0,                                      ! Daylight Saving Time Indicator
  Wetbulb,                                ! Humidity Indicating Type
  ,                                       ! Humidity Indicating Day Schedule Name
  DefaultMultipliers,                     ! Dry-Bulb Temperature Range Modifier Type
  ,                                       ! Dry-Bulb Temperature Range Modifier Schedule Name
  ASHRAETau,                              ! Solar Model Indicator
  ,                                       ! Beam Solar Day Schedule Name
  ,                                       ! Diffuse Solar Day Schedule Name
  0.429,                                  ! ASHRAE Taub {dimensionless}
  2.133;                                  ! ASHRAE Taud {dimensionless}

OS:ComponentData,
  {9ac37ad0-e93b-4ab6-8506-114e6ac3147c}, ! Handle
  Component Data 1,                       ! Name
  {1e9ddc09-72de-48cd-bf0b-c99ed7150fad}, ! UUID
  {38d5670b-a23f-4213-92f4-6fce85b45de8}, ! Version UUID
  1366308053,                             ! Creation Timestamp
  1366308053,                             ! Version Timestamp
  {2de50fe7-522f-4c15-aa0f-7392cdfadd76}; ! Name of Object 1

