
OS:Version,
  {3436b514-22d4-4467-8f8c-1f1d7867b123}, ! Handle
  0.9.3;                                  ! Version Identifier

OS:SizingPeriod:DesignDay,
  {b0f0b201-ce64-4721-b43f-7a436e5ce3b8}, ! Handle
  Great Falls/Malmstrom Ann Htg Wind 99% Condns WS=>MCDB, ! Name
  5.7,                                    ! Maximum Dry-Bulb Temperature {C}
  0,                                      ! Daily Dry-Bulb Temperature Range {deltaC}
  5.7,                                    ! Humidity Indicating Conditions at Maximum Dry-Bulb {BasedOnField A3}
  89060,                                  ! Barometric Pressure {Pa}
  15.2,                                   ! Wind Speed {m/s}
  230,                                    ! Wind Direction {deg}
  0,                                      ! Sky Clearness
  0,                                      ! Rain Indicator
  0,                                      ! Snow Indicator
  21,                                     ! Day of Month
  1,                                      ! Month
  WinterDesignDay,                        ! Day Type
  0,                                      ! Daylight Saving Time Indicator
  Wetbulb,                                ! Humidity Indicating Type
  ,                                       ! Humidity Indicating Day Schedule Name
  DefaultMultipliers,                     ! Dry-Bulb Temperature Range Modifier Type
  ,                                       ! Dry-Bulb Temperature Range Modifier Schedule Name
  ASHRAEClearSky;                         ! Solar Model Indicator

OS:ComponentData,
  {cee0569e-8ea1-45f8-b774-8f4bf73951b3}, ! Handle
  Component Data 1,                       ! Name
  {07b6e126-7f60-4a79-98b4-ab1f1674b4fb}, ! UUID
  {51e6b396-5803-4c37-89ed-075f61364bc6}, ! Version UUID
  1366308775,                             ! Creation Timestamp
  1366308775,                             ! Version Timestamp
  {b0f0b201-ce64-4721-b43f-7a436e5ce3b8}; ! Name of Object 1

