
OS:Version,
  {1417c09d-db2e-4ca4-9ab2-1857fa0a366a}, ! Handle
  0.9.3;                                  ! Version Identifier

OS:SizingPeriod:DesignDay,
  {b6fff6ec-45ee-45e9-85fe-fe1a9e612926}, ! Handle
  Anchorage Elmendorf Ann Htg 99.6% Condns DB, ! Name
  -26,                                    ! Maximum Dry-Bulb Temperature {C}
  0,                                      ! Daily Dry-Bulb Temperature Range {deltaC}
  -26,                                    ! Humidity Indicating Conditions at Maximum Dry-Bulb {BasedOnField A3}
  100618,                                 ! Barometric Pressure {Pa}
  2.2,                                    ! Wind Speed {m/s}
  50,                                     ! Wind Direction {deg}
  0,                                      ! Sky Clearness
  0,                                      ! Rain Indicator
  0,                                      ! Snow Indicator
  21,                                     ! Day of Month
  1,                                      ! Month
  WinterDesignDay,                        ! Day Type
  0,                                      ! Daylight Saving Time Indicator
  Wetbulb,                                ! Humidity Indicating Type
  ,                                       ! Humidity Indicating Day Schedule Name
  DefaultMultipliers,                     ! Dry-Bulb Temperature Range Modifier Type
  ,                                       ! Dry-Bulb Temperature Range Modifier Schedule Name
  ASHRAEClearSky;                         ! Solar Model Indicator

OS:ComponentData,
  {e16401fa-a4ef-457c-bee0-d9e91b2d445d}, ! Handle
  Component Data 1,                       ! Name
  {0ef3ced2-4321-4065-81bd-0ac6e918d9cb}, ! UUID
  {ef806e48-5421-4b8c-ae25-3af6b89af13b}, ! Version UUID
  1366304691,                             ! Creation Timestamp
  1366304691,                             ! Version Timestamp
  {b6fff6ec-45ee-45e9-85fe-fe1a9e612926}; ! Name of Object 1

