
OS:Version,
  {79239b9e-e15b-47b8-a025-dc62014e0b3e}, ! Handle
  0.9.3;                                  ! Version Identifier

OS:SizingPeriod:DesignDay,
  {92e2a3f3-0bb7-414d-8cfa-98e5638f3c69}, ! Handle
  ABILENE Ann Clg 1% Condns Enth=>MDB,    ! Name
  31.1,                                   ! Maximum Dry-Bulb Temperature {C}
  11.6,                                   ! Daily Dry-Bulb Temperature Range {deltaC}
  73100,                                  ! Humidity Indicating Conditions at Maximum Dry-Bulb {BasedOnField A3}
  95072,                                  ! Barometric Pressure {Pa}
  5.3,                                    ! Wind Speed {m/s}
  160,                                    ! Wind Direction {deg}
  0,                                      ! Sky Clearness
  0,                                      ! Rain Indicator
  0,                                      ! Snow Indicator
  21,                                     ! Day of Month
  7,                                      ! Month
  SummerDesignDay,                        ! Day Type
  0,                                      ! Daylight Saving Time Indicator
  Enthalpy,                               ! Humidity Indicating Type
  ,                                       ! Humidity Indicating Day Schedule Name
  DefaultMultipliers,                     ! Dry-Bulb Temperature Range Modifier Type
  ,                                       ! Dry-Bulb Temperature Range Modifier Schedule Name
  ASHRAETau,                              ! Solar Model Indicator
  ,                                       ! Beam Solar Day Schedule Name
  ,                                       ! Diffuse Solar Day Schedule Name
  0.426,                                  ! ASHRAE Taub {dimensionless}
  2.172;                                  ! ASHRAE Taud {dimensionless}

OS:ComponentData,
  {96a19f17-68f8-419b-9fd4-ecad79aeb3a2}, ! Handle
  Component Data 1,                       ! Name
  {b4c5c7f1-34ac-410d-a055-735a129919ad}, ! UUID
  {642ac2a2-963c-4ca5-912e-c358b6058c07}, ! Version UUID
  1366310552,                             ! Creation Timestamp
  1366310552,                             ! Version Timestamp
  {92e2a3f3-0bb7-414d-8cfa-98e5638f3c69}; ! Name of Object 1

