
OS:Version,
  {f4a58e9e-23d4-4b70-adde-88ce8d43e629}, ! Handle
  0.9.3;                                  ! Version Identifier

OS:SizingPeriod:DesignDay,
  {c05b6481-9ca5-47ec-b7f0-1ec44a9ab702}, ! Handle
  Kingsville/NAS Ann Hum_n 99% Condns DP=>MCDB, ! Name
  8.2,                                    ! Maximum Dry-Bulb Temperature {C}
  0,                                      ! Daily Dry-Bulb Temperature Range {deltaC}
  -5.9,                                   ! Humidity Indicating Conditions at Maximum Dry-Bulb {BasedOnField A3}
  101145,                                 ! Barometric Pressure {Pa}
  4.1,                                    ! Wind Speed {m/s}
  0,                                      ! Wind Direction {deg}
  0,                                      ! Sky Clearness
  0,                                      ! Rain Indicator
  0,                                      ! Snow Indicator
  21,                                     ! Day of Month
  1,                                      ! Month
  WinterDesignDay,                        ! Day Type
  0,                                      ! Daylight Saving Time Indicator
  Dewpoint,                               ! Humidity Indicating Type
  ,                                       ! Humidity Indicating Day Schedule Name
  DefaultMultipliers,                     ! Dry-Bulb Temperature Range Modifier Type
  ,                                       ! Dry-Bulb Temperature Range Modifier Schedule Name
  ASHRAEClearSky;                         ! Solar Model Indicator

OS:ComponentData,
  {76bde145-e9ba-43f3-91c3-4a1f02d7d019}, ! Handle
  Component Data 1,                       ! Name
  {4bddbdad-c32d-4d17-a585-c0d3033f1a81}, ! UUID
  {a9fc3810-f4e3-4db9-bfaa-fc7a4f64ea19}, ! Version UUID
  1366310771,                             ! Creation Timestamp
  1366310771,                             ! Version Timestamp
  {c05b6481-9ca5-47ec-b7f0-1ec44a9ab702}; ! Name of Object 1

