
OS:Version,
  {af0efef5-7e06-474e-abe0-926c52ad792a}, ! Handle
  0.9.3;                                  ! Version Identifier

OS:SizingPeriod:DesignDay,
  {7755961e-de4c-4635-9fa3-388a2fdaa088}, ! Handle
  Lihue Airport Ann Hum_n 99.6% Condns DP=>MCDB, ! Name
  19.1,                                   ! Maximum Dry-Bulb Temperature {C}
  0,                                      ! Daily Dry-Bulb Temperature Range {deltaC}
  10.3,                                   ! Humidity Indicating Conditions at Maximum Dry-Bulb {BasedOnField A3}
  100953,                                 ! Barometric Pressure {Pa}
  3.5,                                    ! Wind Speed {m/s}
  280,                                    ! Wind Direction {deg}
  0,                                      ! Sky Clearness
  0,                                      ! Rain Indicator
  0,                                      ! Snow Indicator
  21,                                     ! Day of Month
  2,                                      ! Month
  WinterDesignDay,                        ! Day Type
  0,                                      ! Daylight Saving Time Indicator
  Dewpoint,                               ! Humidity Indicating Type
  ,                                       ! Humidity Indicating Day Schedule Name
  DefaultMultipliers,                     ! Dry-Bulb Temperature Range Modifier Type
  ,                                       ! Dry-Bulb Temperature Range Modifier Schedule Name
  ASHRAEClearSky;                         ! Solar Model Indicator

OS:ComponentData,
  {3aebd5f5-178c-44e3-87c7-1aabf0716639}, ! Handle
  Component Data 1,                       ! Name
  {160873d5-0386-4788-abbf-61aafca2e14b}, ! UUID
  {86f65f3e-7d27-4e8a-88d2-cd95778eda10}, ! Version UUID
  1366307120,                             ! Creation Timestamp
  1366307120,                             ! Version Timestamp
  {7755961e-de4c-4635-9fa3-388a2fdaa088}; ! Name of Object 1

