
OS:Version,
  {2c355157-1b92-46f1-b463-800d20a3266b}, ! Handle
  0.9.3;                                  ! Version Identifier

OS:SizingPeriod:DesignDay,
  {4baed7e4-69ac-44ff-82be-4e1814ae292b}, ! Handle
  La Crosse Ann Clg 2% Condns DP=>MDB,    ! Name
  26.5,                                   ! Maximum Dry-Bulb Temperature {C}
  11.1,                                   ! Daily Dry-Bulb Temperature Range {deltaC}
  21.9,                                   ! Humidity Indicating Conditions at Maximum Dry-Bulb {BasedOnField A3}
  98922,                                  ! Barometric Pressure {Pa}
  5.4,                                    ! Wind Speed {m/s}
  180,                                    ! Wind Direction {deg}
  0,                                      ! Sky Clearness
  0,                                      ! Rain Indicator
  0,                                      ! Snow Indicator
  21,                                     ! Day of Month
  7,                                      ! Month
  SummerDesignDay,                        ! Day Type
  0,                                      ! Daylight Saving Time Indicator
  Dewpoint,                               ! Humidity Indicating Type
  ,                                       ! Humidity Indicating Day Schedule Name
  DefaultMultipliers,                     ! Dry-Bulb Temperature Range Modifier Type
  ,                                       ! Dry-Bulb Temperature Range Modifier Schedule Name
  ASHRAETau,                              ! Solar Model Indicator
  ,                                       ! Beam Solar Day Schedule Name
  ,                                       ! Diffuse Solar Day Schedule Name
  0.431,                                  ! ASHRAE Taub {dimensionless}
  2.126;                                  ! ASHRAE Taud {dimensionless}

OS:ComponentData,
  {91468535-75c2-4948-8b32-6633ce412c0c}, ! Handle
  Component Data 1,                       ! Name
  {ecaca99e-75f0-4292-b341-f8950e0097a9}, ! UUID
  {ef3fa58c-41df-44b2-9911-29751dcc09e0}, ! Version UUID
  1366311509,                             ! Creation Timestamp
  1366311509,                             ! Version Timestamp
  {4baed7e4-69ac-44ff-82be-4e1814ae292b}; ! Name of Object 1

