
OS:Version,
  {34887f65-7705-4138-8e3a-dfa51cc33b03}, ! Handle
  0.9.3;                                  ! Version Identifier

OS:SizingPeriod:DesignDay,
  {43970319-791a-4831-bf45-074868a4a053}, ! Handle
  ALBANY Ann Hum_n 99.6% Condns DP=>MCDB, ! Name
  -17.7,                                  ! Maximum Dry-Bulb Temperature {C}
  0,                                      ! Daily Dry-Bulb Temperature Range {deltaC}
  -25,                                    ! Humidity Indicating Conditions at Maximum Dry-Bulb {BasedOnField A3}
  100260,                                 ! Barometric Pressure {Pa}
  2.7,                                    ! Wind Speed {m/s}
  300,                                    ! Wind Direction {deg}
  0,                                      ! Sky Clearness
  0,                                      ! Rain Indicator
  0,                                      ! Snow Indicator
  21,                                     ! Day of Month
  1,                                      ! Month
  WinterDesignDay,                        ! Day Type
  0,                                      ! Daylight Saving Time Indicator
  Dewpoint,                               ! Humidity Indicating Type
  ,                                       ! Humidity Indicating Day Schedule Name
  DefaultMultipliers,                     ! Dry-Bulb Temperature Range Modifier Type
  ,                                       ! Dry-Bulb Temperature Range Modifier Schedule Name
  ASHRAEClearSky;                         ! Solar Model Indicator

OS:ComponentData,
  {723acb1c-b637-4ab4-8f37-de1f6c60e1d4}, ! Handle
  Component Data 1,                       ! Name
  {f54cae7e-fcb2-495d-9216-e5f53ad0525b}, ! UUID
  {e5b78540-fcd1-4463-aba0-2fdbacc50cfa}, ! Version UUID
  1366309574,                             ! Creation Timestamp
  1366309574,                             ! Version Timestamp
  {43970319-791a-4831-bf45-074868a4a053}; ! Name of Object 1

