
OS:Version,
  {f80098f8-35db-4483-a197-c81086eeeddf}, ! Handle
  0.9.3;                                  ! Version Identifier

OS:SizingPeriod:DesignDay,
  {b2ba9c75-ebb0-4879-9f23-6df04086aea1}, ! Handle
  Clinton Muni  Awos Ann Clg 2% Condns DB=>MWB, ! Name
  29.1,                                   ! Maximum Dry-Bulb Temperature {C}
  10.9,                                   ! Daily Dry-Bulb Temperature Range {deltaC}
  22.1,                                   ! Humidity Indicating Conditions at Maximum Dry-Bulb {BasedOnField A3}
  98757,                                  ! Barometric Pressure {Pa}
  5.3,                                    ! Wind Speed {m/s}
  210,                                    ! Wind Direction {deg}
  0,                                      ! Sky Clearness
  0,                                      ! Rain Indicator
  0,                                      ! Snow Indicator
  21,                                     ! Day of Month
  7,                                      ! Month
  SummerDesignDay,                        ! Day Type
  0,                                      ! Daylight Saving Time Indicator
  Wetbulb,                                ! Humidity Indicating Type
  ,                                       ! Humidity Indicating Day Schedule Name
  DefaultMultipliers,                     ! Dry-Bulb Temperature Range Modifier Type
  ,                                       ! Dry-Bulb Temperature Range Modifier Schedule Name
  ASHRAETau,                              ! Solar Model Indicator
  ,                                       ! Beam Solar Day Schedule Name
  ,                                       ! Diffuse Solar Day Schedule Name
  0.444,                                  ! ASHRAE Taub {dimensionless}
  2.086;                                  ! ASHRAE Taud {dimensionless}

OS:ComponentData,
  {e6675a0f-fea1-4756-8f61-6335940939c2}, ! Handle
  Component Data 1,                       ! Name
  {ce71da0a-7c60-4830-b696-92febe54025b}, ! UUID
  {a2a6ec33-ee61-4fd4-9794-b635c18dbe85}, ! Version UUID
  1366307160,                             ! Creation Timestamp
  1366307160,                             ! Version Timestamp
  {b2ba9c75-ebb0-4879-9f23-6df04086aea1}; ! Name of Object 1

