
OS:Version,
  {823e85db-d91b-4d02-b17a-10039013ffa6}, ! Handle
  0.9.3;                                  ! Version Identifier

OS:SizingPeriod:DesignDay,
  {997f4cba-f2f2-4983-afab-275390c4f187}, ! Handle
  El Paso International Ap  Ut Ann Htg Wind 99.6% Condns WS=>MCDB, ! Name
  12.2,                                   ! Maximum Dry-Bulb Temperature {C}
  0,                                      ! Daily Dry-Bulb Temperature Range {deltaC}
  12.2,                                   ! Humidity Indicating Conditions at Maximum Dry-Bulb {BasedOnField A3}
  87865,                                  ! Barometric Pressure {Pa}
  12.8,                                   ! Wind Speed {m/s}
  20,                                     ! Wind Direction {deg}
  0,                                      ! Sky Clearness
  0,                                      ! Rain Indicator
  0,                                      ! Snow Indicator
  21,                                     ! Day of Month
  12,                                     ! Month
  WinterDesignDay,                        ! Day Type
  0,                                      ! Daylight Saving Time Indicator
  Wetbulb,                                ! Humidity Indicating Type
  ,                                       ! Humidity Indicating Day Schedule Name
  DefaultMultipliers,                     ! Dry-Bulb Temperature Range Modifier Type
  ,                                       ! Dry-Bulb Temperature Range Modifier Schedule Name
  ASHRAEClearSky;                         ! Solar Model Indicator

OS:ComponentData,
  {f0c73892-e5e5-4346-b1b2-3040c2de069a}, ! Handle
  Component Data 1,                       ! Name
  {7e748b53-f85c-491b-979d-2b90a2fa8b5e}, ! UUID
  {c004a4c9-e160-4ea5-8180-780dfd6c3955}, ! Version UUID
  1366310692,                             ! Creation Timestamp
  1366310692,                             ! Version Timestamp
  {997f4cba-f2f2-4983-afab-275390c4f187}; ! Name of Object 1

