
OS:Version,
  {cb2eeeb3-d52e-4d79-860f-b0ee09d520e4}, ! Handle
  0.9.3;                                  ! Version Identifier

OS:SizingPeriod:DesignDay,
  {3c45f2db-e5f7-4848-9d27-9bc9551975ac}, ! Handle
  Bluefield Mercer Co  Nrel Ann Htg 99.6% Condns DB, ! Name
  -14.5,                                  ! Maximum Dry-Bulb Temperature {C}
  0,                                      ! Daily Dry-Bulb Temperature Range {deltaC}
  -14.5,                                  ! Humidity Indicating Conditions at Maximum Dry-Bulb {BasedOnField A3}
  92043,                                  ! Barometric Pressure {Pa}
  3.2,                                    ! Wind Speed {m/s}
  260,                                    ! Wind Direction {deg}
  0,                                      ! Sky Clearness
  0,                                      ! Rain Indicator
  0,                                      ! Snow Indicator
  21,                                     ! Day of Month
  1,                                      ! Month
  WinterDesignDay,                        ! Day Type
  0,                                      ! Daylight Saving Time Indicator
  Wetbulb,                                ! Humidity Indicating Type
  ,                                       ! Humidity Indicating Day Schedule Name
  DefaultMultipliers,                     ! Dry-Bulb Temperature Range Modifier Type
  ,                                       ! Dry-Bulb Temperature Range Modifier Schedule Name
  ASHRAEClearSky;                         ! Solar Model Indicator

OS:ComponentData,
  {432f600a-0cc5-446b-8fb9-b5c23c4a5d29}, ! Handle
  Component Data 1,                       ! Name
  {231babed-5cbe-4763-ba39-908ff04902d0}, ! UUID
  {b77f90e7-2d42-4ad8-9257-7ea32cf74ef2}, ! Version UUID
  1366311613,                             ! Creation Timestamp
  1366311613,                             ! Version Timestamp
  {3c45f2db-e5f7-4848-9d27-9bc9551975ac}; ! Name of Object 1

