
OS:Version,
  {8c465878-1389-4fc2-9eb4-1d93071cbc52}, ! Handle
  0.9.3;                                  ! Version Identifier

OS:SizingPeriod:DesignDay,
  {476fafe3-d300-47db-91cd-4745fb58bb44}, ! Handle
  Lynchburg Regional Arpt Ann Clg .4% Condns Enth=>MDB, ! Name
  30.6,                                   ! Maximum Dry-Bulb Temperature {C}
  10.7,                                   ! Daily Dry-Bulb Temperature Range {deltaC}
  76300,                                  ! Humidity Indicating Conditions at Maximum Dry-Bulb {BasedOnField A3}
  97936,                                  ! Barometric Pressure {Pa}
  3.3,                                    ! Wind Speed {m/s}
  240,                                    ! Wind Direction {deg}
  0,                                      ! Sky Clearness
  0,                                      ! Rain Indicator
  0,                                      ! Snow Indicator
  21,                                     ! Day of Month
  7,                                      ! Month
  SummerDesignDay,                        ! Day Type
  0,                                      ! Daylight Saving Time Indicator
  Enthalpy,                               ! Humidity Indicating Type
  ,                                       ! Humidity Indicating Day Schedule Name
  DefaultMultipliers,                     ! Dry-Bulb Temperature Range Modifier Type
  ,                                       ! Dry-Bulb Temperature Range Modifier Schedule Name
  ASHRAETau,                              ! Solar Model Indicator
  ,                                       ! Beam Solar Day Schedule Name
  ,                                       ! Diffuse Solar Day Schedule Name
  0.531,                                  ! ASHRAE Taub {dimensionless}
  1.818;                                  ! ASHRAE Taud {dimensionless}

OS:ComponentData,
  {e121eafa-5ef0-469e-ba24-b463cc819866}, ! Handle
  Component Data 1,                       ! Name
  {8de56ff4-bd91-43f6-944f-750a8ce593aa}, ! UUID
  {275e2c71-08e9-47ad-896a-9bdc523c6cba}, ! Version UUID
  1366311091,                             ! Creation Timestamp
  1366311091,                             ! Version Timestamp
  {476fafe3-d300-47db-91cd-4745fb58bb44}; ! Name of Object 1

