
OS:Version,
  {8cf61855-df8a-4969-8b72-44efb9b0afb4}, ! Handle
  0.9.3;                                  ! Version Identifier

OS:SizingPeriod:DesignDay,
  {43fa674d-4057-4642-a629-44d0825eb55a}, ! Handle
  Lakehurst NAS Ann Htg 99% Condns DB,    ! Name
  -9.4,                                   ! Maximum Dry-Bulb Temperature {C}
  0,                                      ! Daily Dry-Bulb Temperature Range {deltaC}
  -9.4,                                   ! Humidity Indicating Conditions at Maximum Dry-Bulb {BasedOnField A3}
  100917,                                 ! Barometric Pressure {Pa}
  4.1,                                    ! Wind Speed {m/s}
  350,                                    ! Wind Direction {deg}
  0,                                      ! Sky Clearness
  0,                                      ! Rain Indicator
  0,                                      ! Snow Indicator
  21,                                     ! Day of Month
  1,                                      ! Month
  WinterDesignDay,                        ! Day Type
  0,                                      ! Daylight Saving Time Indicator
  Wetbulb,                                ! Humidity Indicating Type
  ,                                       ! Humidity Indicating Day Schedule Name
  DefaultMultipliers,                     ! Dry-Bulb Temperature Range Modifier Type
  ,                                       ! Dry-Bulb Temperature Range Modifier Schedule Name
  ASHRAEClearSky;                         ! Solar Model Indicator

OS:ComponentData,
  {b70e44bd-ab7e-47e4-8548-bf7e05cee8e6}, ! Handle
  Component Data 1,                       ! Name
  {ed831cc0-3cfb-4a09-8b5a-efb2463650ab}, ! UUID
  {38ed7037-5db0-4696-98af-e4893edf9bf2}, ! Version UUID
  1366309306,                             ! Creation Timestamp
  1366309306,                             ! Version Timestamp
  {43fa674d-4057-4642-a629-44d0825eb55a}; ! Name of Object 1

