
OS:Version,
  {fcf8125b-45ae-4682-a2ca-61b6c399dd72}, ! Handle
  0.9.3;                                  ! Version Identifier

OS:SizingPeriod:DesignDay,
  {0ee8e59e-b72c-498e-a794-2df1e3ca0daf}, ! Handle
  Albuquerque Ann Hum_n 99.6% Condns DP=>MCDB, ! Name
  3,                                      ! Maximum Dry-Bulb Temperature {C}
  0,                                      ! Daily Dry-Bulb Temperature Range {deltaC}
  -19.2,                                  ! Humidity Indicating Conditions at Maximum Dry-Bulb {BasedOnField A3}
  83318,                                  ! Barometric Pressure {Pa}
  3.2,                                    ! Wind Speed {m/s}
  0,                                      ! Wind Direction {deg}
  0,                                      ! Sky Clearness
  0,                                      ! Rain Indicator
  0,                                      ! Snow Indicator
  21,                                     ! Day of Month
  12,                                     ! Month
  WinterDesignDay,                        ! Day Type
  0,                                      ! Daylight Saving Time Indicator
  Dewpoint,                               ! Humidity Indicating Type
  ,                                       ! Humidity Indicating Day Schedule Name
  DefaultMultipliers,                     ! Dry-Bulb Temperature Range Modifier Type
  ,                                       ! Dry-Bulb Temperature Range Modifier Schedule Name
  ASHRAEClearSky;                         ! Solar Model Indicator

OS:ComponentData,
  {f725a7dd-69ba-42a9-bf6a-f61c3fd8dd90}, ! Handle
  Component Data 1,                       ! Name
  {386a10e5-72c8-4ca9-8f95-9d9ab07ca0b8}, ! UUID
  {e7ffbb2b-2c5d-434d-ad15-b550d869514b}, ! Version UUID
  1366309362,                             ! Creation Timestamp
  1366309362,                             ! Version Timestamp
  {0ee8e59e-b72c-498e-a794-2df1e3ca0daf}; ! Name of Object 1

