
OS:Version,
  {10024a26-abb6-40ad-931e-8e75b0c295ee}, ! Handle
  0.9.3;                                  ! Version Identifier

OS:SizingPeriod:DesignDay,
  {e001fff7-f61a-4f6f-9f75-12ae4f9e7637}, ! Handle
  BOSTON Ann Htg 99.6% Condns DB,         ! Name
  -13.6,                                  ! Maximum Dry-Bulb Temperature {C}
  0,                                      ! Daily Dry-Bulb Temperature Range {deltaC}
  -13.6,                                  ! Humidity Indicating Conditions at Maximum Dry-Bulb {BasedOnField A3}
  101265,                                 ! Barometric Pressure {Pa}
  7.2,                                    ! Wind Speed {m/s}
  320,                                    ! Wind Direction {deg}
  0,                                      ! Sky Clearness
  0,                                      ! Rain Indicator
  0,                                      ! Snow Indicator
  21,                                     ! Day of Month
  1,                                      ! Month
  WinterDesignDay,                        ! Day Type
  0,                                      ! Daylight Saving Time Indicator
  Wetbulb,                                ! Humidity Indicating Type
  ,                                       ! Humidity Indicating Day Schedule Name
  DefaultMultipliers,                     ! Dry-Bulb Temperature Range Modifier Type
  ,                                       ! Dry-Bulb Temperature Range Modifier Schedule Name
  ASHRAEClearSky;                         ! Solar Model Indicator

OS:ComponentData,
  {ccb3cbb6-821f-43b6-bdb4-4fd988507574}, ! Handle
  Component Data 1,                       ! Name
  {b99d2b27-15d9-45b7-ac55-01ded11f82bd}, ! UUID
  {05ce476a-b00c-4699-8b07-c63bb55c6390}, ! Version UUID
  1366307781,                             ! Creation Timestamp
  1366307781,                             ! Version Timestamp
  {e001fff7-f61a-4f6f-9f75-12ae4f9e7637}; ! Name of Object 1

