
OS:Version,
  {f33ac392-3bae-45dd-a2f4-8274c66b07f9}, ! Handle
  0.9.3;                                  ! Version Identifier

OS:SizingPeriod:DesignDay,
  {edc05015-e56b-42b2-9473-d3b812ecd312}, ! Handle
  Fayetteville Drake Field Ann Clg 2% Condns WB=>MDB, ! Name
  30.3,                                   ! Maximum Dry-Bulb Temperature {C}
  11.8,                                   ! Daily Dry-Bulb Temperature Range {deltaC}
  24.3,                                   ! Humidity Indicating Conditions at Maximum Dry-Bulb {BasedOnField A3}
  96831,                                  ! Barometric Pressure {Pa}
  4.3,                                    ! Wind Speed {m/s}
  190,                                    ! Wind Direction {deg}
  0,                                      ! Sky Clearness
  0,                                      ! Rain Indicator
  0,                                      ! Snow Indicator
  21,                                     ! Day of Month
  7,                                      ! Month
  SummerDesignDay,                        ! Day Type
  0,                                      ! Daylight Saving Time Indicator
  Wetbulb,                                ! Humidity Indicating Type
  ,                                       ! Humidity Indicating Day Schedule Name
  DefaultMultipliers,                     ! Dry-Bulb Temperature Range Modifier Type
  ,                                       ! Dry-Bulb Temperature Range Modifier Schedule Name
  ASHRAETau,                              ! Solar Model Indicator
  ,                                       ! Beam Solar Day Schedule Name
  ,                                       ! Diffuse Solar Day Schedule Name
  0.462,                                  ! ASHRAE Taub {dimensionless}
  2.054;                                  ! ASHRAE Taud {dimensionless}

OS:ComponentData,
  {de2f3b83-261b-4f74-893d-8f8602305ae1}, ! Handle
  Component Data 1,                       ! Name
  {8d14716b-28c5-493e-908f-d8b2b3d5bc95}, ! UUID
  {ab2cce90-4574-4157-bd53-e02170642f27}, ! Version UUID
  1366306200,                             ! Creation Timestamp
  1366306200,                             ! Version Timestamp
  {edc05015-e56b-42b2-9473-d3b812ecd312}; ! Name of Object 1

