
OS:Version,
  {066deaeb-29de-45d3-919a-5325d06a46d8}, ! Handle
  0.9.3;                                  ! Version Identifier

OS:SizingPeriod:DesignDay,
  {924e32d9-c573-4355-acb0-0d44e4d03d7b}, ! Handle
  Jefferson City Mem Ann Hum_n 99.6% Condns DP=>MCDB, ! Name
  -12,                                    ! Maximum Dry-Bulb Temperature {C}
  0,                                      ! Daily Dry-Bulb Temperature Range {deltaC}
  -18.7,                                  ! Humidity Indicating Conditions at Maximum Dry-Bulb {BasedOnField A3}
  99335,                                  ! Barometric Pressure {Pa}
  3.1,                                    ! Wind Speed {m/s}
  300,                                    ! Wind Direction {deg}
  0,                                      ! Sky Clearness
  0,                                      ! Rain Indicator
  0,                                      ! Snow Indicator
  21,                                     ! Day of Month
  1,                                      ! Month
  WinterDesignDay,                        ! Day Type
  0,                                      ! Daylight Saving Time Indicator
  Dewpoint,                               ! Humidity Indicating Type
  ,                                       ! Humidity Indicating Day Schedule Name
  DefaultMultipliers,                     ! Dry-Bulb Temperature Range Modifier Type
  ,                                       ! Dry-Bulb Temperature Range Modifier Schedule Name
  ASHRAEClearSky;                         ! Solar Model Indicator

OS:ComponentData,
  {f4bacfe9-193d-4c4d-ae49-c0516f5de5b7}, ! Handle
  Component Data 1,                       ! Name
  {2add3a66-6376-497c-a791-d084c1848147}, ! UUID
  {dc528dc6-308c-43e8-894b-5a77aa4606e7}, ! Version UUID
  1366308501,                             ! Creation Timestamp
  1366308501,                             ! Version Timestamp
  {924e32d9-c573-4355-acb0-0d44e4d03d7b}; ! Name of Object 1

