
OS:Version,
  {1490108f-d650-40fe-9965-1420657899d1}, ! Handle
  0.9.3;                                  ! Version Identifier

OS:SizingPeriod:DesignDay,
  {abb5f331-6e3c-4393-8b3a-23283d95ed01}, ! Handle
  FAIRBANKS Ann Htg Wind 99.6% Condns WS=>MCDB, ! Name
  -15.6,                                  ! Maximum Dry-Bulb Temperature {C}
  0,                                      ! Daily Dry-Bulb Temperature Range {deltaC}
  -15.6,                                  ! Humidity Indicating Conditions at Maximum Dry-Bulb {BasedOnField A3}
  99678,                                  ! Barometric Pressure {Pa}
  8.9,                                    ! Wind Speed {m/s}
  20,                                     ! Wind Direction {deg}
  0,                                      ! Sky Clearness
  0,                                      ! Rain Indicator
  0,                                      ! Snow Indicator
  21,                                     ! Day of Month
  1,                                      ! Month
  WinterDesignDay,                        ! Day Type
  0,                                      ! Daylight Saving Time Indicator
  Wetbulb,                                ! Humidity Indicating Type
  ,                                       ! Humidity Indicating Day Schedule Name
  DefaultMultipliers,                     ! Dry-Bulb Temperature Range Modifier Type
  ,                                       ! Dry-Bulb Temperature Range Modifier Schedule Name
  ASHRAEClearSky;                         ! Solar Model Indicator

OS:ComponentData,
  {0ff04b74-b0fa-4f8c-a502-5b0f5d832c1f}, ! Handle
  Component Data 1,                       ! Name
  {ba04c853-3b31-45f7-b915-4d1808ca766b}, ! UUID
  {ed8173c9-9af4-4955-95e3-ecab6ad2793c}, ! Version UUID
  1366305248,                             ! Creation Timestamp
  1366305248,                             ! Version Timestamp
  {abb5f331-6e3c-4393-8b3a-23283d95ed01}; ! Name of Object 1

