
OS:Version,
  {9d0619a4-ef57-40dc-8a96-ad8e4879656d}, ! Handle
  0.9.3;                                  ! Version Identifier

OS:SizingPeriod:DesignDay,
  {f302f1eb-e958-4fcd-ad53-3ac2da63cf9f}, ! Handle
  Boise Air Terminal  Uo Ann Htg 99.6% Condns DB, ! Name
  -16.3,                                  ! Maximum Dry-Bulb Temperature {C}
  0,                                      ! Daily Dry-Bulb Temperature Range {deltaC}
  -16.3,                                  ! Humidity Indicating Conditions at Maximum Dry-Bulb {BasedOnField A3}
  93182,                                  ! Barometric Pressure {Pa}
  2.3,                                    ! Wind Speed {m/s}
  120,                                    ! Wind Direction {deg}
  0,                                      ! Sky Clearness
  0,                                      ! Rain Indicator
  0,                                      ! Snow Indicator
  21,                                     ! Day of Month
  12,                                     ! Month
  WinterDesignDay,                        ! Day Type
  0,                                      ! Daylight Saving Time Indicator
  Wetbulb,                                ! Humidity Indicating Type
  ,                                       ! Humidity Indicating Day Schedule Name
  DefaultMultipliers,                     ! Dry-Bulb Temperature Range Modifier Type
  ,                                       ! Dry-Bulb Temperature Range Modifier Schedule Name
  ASHRAEClearSky;                         ! Solar Model Indicator

OS:ComponentData,
  {bea42af4-b5c8-42dd-8d67-bf3c392c495d}, ! Handle
  Component Data 1,                       ! Name
  {63c26da2-a937-4d37-8ac1-7e0857829195}, ! UUID
  {2c509efe-5e39-40d4-b548-56f2140a25c7}, ! Version UUID
  1366307269,                             ! Creation Timestamp
  1366307269,                             ! Version Timestamp
  {f302f1eb-e958-4fcd-ad53-3ac2da63cf9f}; ! Name of Object 1

