
OS:Version,
  {e5ba104d-8106-4c53-9e66-b53283376078}, ! Handle
  0.9.3;                                  ! Version Identifier

OS:SizingPeriod:DesignDay,
  {92a8e28c-a65f-4974-8671-3262e8b043a8}, ! Handle
  Concordia Blosser Muni Ap Ann Clg 1% Condns DP=>MDB, ! Name
  27.9,                                   ! Maximum Dry-Bulb Temperature {C}
  12.3,                                   ! Daily Dry-Bulb Temperature Range {deltaC}
  22.4,                                   ! Humidity Indicating Conditions at Maximum Dry-Bulb {BasedOnField A3}
  96058,                                  ! Barometric Pressure {Pa}
  6.6,                                    ! Wind Speed {m/s}
  180,                                    ! Wind Direction {deg}
  0,                                      ! Sky Clearness
  0,                                      ! Rain Indicator
  0,                                      ! Snow Indicator
  21,                                     ! Day of Month
  7,                                      ! Month
  SummerDesignDay,                        ! Day Type
  0,                                      ! Daylight Saving Time Indicator
  Dewpoint,                               ! Humidity Indicating Type
  ,                                       ! Humidity Indicating Day Schedule Name
  DefaultMultipliers,                     ! Dry-Bulb Temperature Range Modifier Type
  ,                                       ! Dry-Bulb Temperature Range Modifier Schedule Name
  ASHRAETau,                              ! Solar Model Indicator
  ,                                       ! Beam Solar Day Schedule Name
  ,                                       ! Diffuse Solar Day Schedule Name
  0.417,                                  ! ASHRAE Taub {dimensionless}
  2.193;                                  ! ASHRAE Taud {dimensionless}

OS:ComponentData,
  {e0e433fe-76ca-43e3-a67e-6aa61995dd32}, ! Handle
  Component Data 1,                       ! Name
  {8e4752a7-5928-40c7-9a40-b7710ee21a7d}, ! UUID
  {9700a557-d1c4-4e4f-9ec9-3555f446681a}, ! Version UUID
  1366307502,                             ! Creation Timestamp
  1366307502,                             ! Version Timestamp
  {92a8e28c-a65f-4974-8671-3262e8b043a8}; ! Name of Object 1

