
OS:Version,
  {c8065701-6ee5-4d7d-a04d-6acd9e2d18c0}, ! Handle
  0.9.3;                                  ! Version Identifier

OS:SizingPeriod:DesignDay,
  {a6a240f6-b168-4329-802a-bc0d7deb7b22}, ! Handle
  Hunter Aaf Ann Clg 2% Condns DP=>MDB,   ! Name
  28.1,                                   ! Maximum Dry-Bulb Temperature {C}
  9.8,                                    ! Daily Dry-Bulb Temperature Range {deltaC}
  24.9,                                   ! Humidity Indicating Conditions at Maximum Dry-Bulb {BasedOnField A3}
  101169,                                 ! Barometric Pressure {Pa}
  3.5,                                    ! Wind Speed {m/s}
  260,                                    ! Wind Direction {deg}
  0,                                      ! Sky Clearness
  0,                                      ! Rain Indicator
  0,                                      ! Snow Indicator
  21,                                     ! Day of Month
  7,                                      ! Month
  SummerDesignDay,                        ! Day Type
  0,                                      ! Daylight Saving Time Indicator
  Dewpoint,                               ! Humidity Indicating Type
  ,                                       ! Humidity Indicating Day Schedule Name
  DefaultMultipliers,                     ! Dry-Bulb Temperature Range Modifier Type
  ,                                       ! Dry-Bulb Temperature Range Modifier Schedule Name
  ASHRAETau,                              ! Solar Model Indicator
  ,                                       ! Beam Solar Day Schedule Name
  ,                                       ! Diffuse Solar Day Schedule Name
  0.556,                                  ! ASHRAE Taub {dimensionless}
  1.82;                                   ! ASHRAE Taud {dimensionless}

OS:ComponentData,
  {b324fdd1-b1c3-4f8d-8c83-ebfc3103ce08}, ! Handle
  Component Data 1,                       ! Name
  {e8cfdd7a-57de-4a4a-9896-68b68aaf42df}, ! UUID
  {adbe1b7b-26db-40fe-9bee-dac3cb96b607}, ! Version UUID
  1366307041,                             ! Creation Timestamp
  1366307041,                             ! Version Timestamp
  {a6a240f6-b168-4329-802a-bc0d7deb7b22}; ! Name of Object 1

