
OS:Version,
  {9cd099c1-9445-4de1-911b-1b06e292b86a}, ! Handle
  0.9.3;                                  ! Version Identifier

OS:SizingPeriod:DesignDay,
  {1c609dd6-72fc-4fbc-8437-21f86ccb70cf}, ! Handle
  Albany Dougherty County Ap Ann Clg .4% Condns WB=>MDB, ! Name
  32.4,                                   ! Maximum Dry-Bulb Temperature {C}
  10.7,                                   ! Daily Dry-Bulb Temperature Range {deltaC}
  26.5,                                   ! Humidity Indicating Conditions at Maximum Dry-Bulb {BasedOnField A3}
  100630,                                 ! Barometric Pressure {Pa}
  3.6,                                    ! Wind Speed {m/s}
  240,                                    ! Wind Direction {deg}
  0,                                      ! Sky Clearness
  0,                                      ! Rain Indicator
  0,                                      ! Snow Indicator
  21,                                     ! Day of Month
  7,                                      ! Month
  SummerDesignDay,                        ! Day Type
  0,                                      ! Daylight Saving Time Indicator
  Wetbulb,                                ! Humidity Indicating Type
  ,                                       ! Humidity Indicating Day Schedule Name
  DefaultMultipliers,                     ! Dry-Bulb Temperature Range Modifier Type
  ,                                       ! Dry-Bulb Temperature Range Modifier Schedule Name
  ASHRAETau,                              ! Solar Model Indicator
  ,                                       ! Beam Solar Day Schedule Name
  ,                                       ! Diffuse Solar Day Schedule Name
  0.547,                                  ! ASHRAE Taub {dimensionless}
  1.824;                                  ! ASHRAE Taud {dimensionless}

OS:ComponentData,
  {5fd66584-53b0-4ea8-b296-520052f6f2ab}, ! Handle
  Component Data 1,                       ! Name
  {2d1fb8b4-4794-43bb-b453-c943d3c71577}, ! UUID
  {fc8239b3-68c1-41cd-b100-196ffbb37aea}, ! Version UUID
  1366306961,                             ! Creation Timestamp
  1366306961,                             ! Version Timestamp
  {1c609dd6-72fc-4fbc-8437-21f86ccb70cf}; ! Name of Object 1

