
OS:Version,
  {e28db1fd-3f48-40b8-91f8-003a53f6f4f5}, ! Handle
  0.9.3;                                  ! Version Identifier

OS:SizingPeriod:DesignDay,
  {8b877709-c831-47b2-bef7-84b7c6ab6408}, ! Handle
  Benson Muni Ann Htg 99% Condns DB,      ! Name
  -23.6,                                  ! Maximum Dry-Bulb Temperature {C}
  0,                                      ! Daily Dry-Bulb Temperature Range {deltaC}
  -23.6,                                  ! Humidity Indicating Conditions at Maximum Dry-Bulb {BasedOnField A3}
  97574,                                  ! Barometric Pressure {Pa}
  2.7,                                    ! Wind Speed {m/s}
  300,                                    ! Wind Direction {deg}
  0,                                      ! Sky Clearness
  0,                                      ! Rain Indicator
  0,                                      ! Snow Indicator
  21,                                     ! Day of Month
  1,                                      ! Month
  WinterDesignDay,                        ! Day Type
  0,                                      ! Daylight Saving Time Indicator
  Wetbulb,                                ! Humidity Indicating Type
  ,                                       ! Humidity Indicating Day Schedule Name
  DefaultMultipliers,                     ! Dry-Bulb Temperature Range Modifier Type
  ,                                       ! Dry-Bulb Temperature Range Modifier Schedule Name
  ASHRAEClearSky;                         ! Solar Model Indicator

OS:ComponentData,
  {84756e1a-fc39-41f9-98ba-e0ffd00a1a4c}, ! Handle
  Component Data 1,                       ! Name
  {59983088-1f3a-4e6a-af6b-b52a71da499f}, ! UUID
  {689d9479-2b26-445e-ba2a-f13bdc8d3510}, ! Version UUID
  1366308162,                             ! Creation Timestamp
  1366308162,                             ! Version Timestamp
  {8b877709-c831-47b2-bef7-84b7c6ab6408}; ! Name of Object 1

