
OS:Version,
  {9a0ba76a-13ff-4250-941c-3db148968ea1}, ! Handle
  0.9.3;                                  ! Version Identifier

OS:SizingPeriod:DesignDay,
  {4fc01875-8c55-412e-9f3f-c29b3bf75a62}, ! Handle
  Amarillo International Ap  Ca Ann Clg .4% Condns Enth=>MDB, ! Name
  29.8,                                   ! Maximum Dry-Bulb Temperature {C}
  13.8,                                   ! Daily Dry-Bulb Temperature Range {deltaC}
  68800,                                  ! Humidity Indicating Conditions at Maximum Dry-Bulb {BasedOnField A3}
  89136,                                  ! Barometric Pressure {Pa}
  6.9,                                    ! Wind Speed {m/s}
  210,                                    ! Wind Direction {deg}
  0,                                      ! Sky Clearness
  0,                                      ! Rain Indicator
  0,                                      ! Snow Indicator
  21,                                     ! Day of Month
  7,                                      ! Month
  SummerDesignDay,                        ! Day Type
  0,                                      ! Daylight Saving Time Indicator
  Enthalpy,                               ! Humidity Indicating Type
  ,                                       ! Humidity Indicating Day Schedule Name
  DefaultMultipliers,                     ! Dry-Bulb Temperature Range Modifier Type
  ,                                       ! Dry-Bulb Temperature Range Modifier Schedule Name
  ASHRAETau,                              ! Solar Model Indicator
  ,                                       ! Beam Solar Day Schedule Name
  ,                                       ! Diffuse Solar Day Schedule Name
  0.414,                                  ! ASHRAE Taub {dimensionless}
  2.136;                                  ! ASHRAE Taud {dimensionless}

OS:ComponentData,
  {7f065f44-07fd-4636-be04-cf9211f483eb}, ! Handle
  Component Data 1,                       ! Name
  {9eda5180-db14-4853-80c5-532a06414f73}, ! UUID
  {434de52c-a0a1-4af0-9348-c64ef0e19509}, ! Version UUID
  1366310575,                             ! Creation Timestamp
  1366310575,                             ! Version Timestamp
  {4fc01875-8c55-412e-9f3f-c29b3bf75a62}; ! Name of Object 1

