
OS:Version,
  {0cd23ee3-71aa-456a-b540-e231c389dbfe}, ! Handle
  0.9.3;                                  ! Version Identifier

OS:SizingPeriod:DesignDay,
  {dc55a04d-8a81-4f00-b857-f56c8ace22b4}, ! Handle
  Fayetteville Pope Afb Ann Clg 2% Condns Enth=>MDB, ! Name
  30.5,                                   ! Maximum Dry-Bulb Temperature {C}
  10.4,                                   ! Daily Dry-Bulb Temperature Range {deltaC}
  77000,                                  ! Humidity Indicating Conditions at Maximum Dry-Bulb {BasedOnField A3}
  100535,                                 ! Barometric Pressure {Pa}
  3.4,                                    ! Wind Speed {m/s}
  230,                                    ! Wind Direction {deg}
  0,                                      ! Sky Clearness
  0,                                      ! Rain Indicator
  0,                                      ! Snow Indicator
  21,                                     ! Day of Month
  7,                                      ! Month
  SummerDesignDay,                        ! Day Type
  0,                                      ! Daylight Saving Time Indicator
  Enthalpy,                               ! Humidity Indicating Type
  ,                                       ! Humidity Indicating Day Schedule Name
  DefaultMultipliers,                     ! Dry-Bulb Temperature Range Modifier Type
  ,                                       ! Dry-Bulb Temperature Range Modifier Schedule Name
  ASHRAETau,                              ! Solar Model Indicator
  ,                                       ! Beam Solar Day Schedule Name
  ,                                       ! Diffuse Solar Day Schedule Name
  0.584,                                  ! ASHRAE Taub {dimensionless}
  1.713;                                  ! ASHRAE Taud {dimensionless}

OS:ComponentData,
  {316c7549-5c62-4405-a6c0-15614e90f64a}, ! Handle
  Component Data 1,                       ! Name
  {e875421f-b8b0-4821-87bb-3915fb9d65cd}, ! UUID
  {de2d2f2a-9448-46ad-8efb-006370a522d3}, ! Version UUID
  1366308912,                             ! Creation Timestamp
  1366308912,                             ! Version Timestamp
  {dc55a04d-8a81-4f00-b857-f56c8ace22b4}; ! Name of Object 1

