
OS:Version,
  {a3c26896-84e1-46d4-b781-67242a7dff4a}, ! Handle
  0.9.3;                                  ! Version Identifier

OS:SizingPeriod:DesignDay,
  {db4d0591-47e1-4905-825e-d705568333dd}, ! Handle
  Austin Muni Ann Clg 2% Condns DP=>MDB,  ! Name
  26.2,                                   ! Maximum Dry-Bulb Temperature {C}
  10.2,                                   ! Daily Dry-Bulb Temperature Range {deltaC}
  22.3,                                   ! Humidity Indicating Conditions at Maximum Dry-Bulb {BasedOnField A3}
  96900,                                  ! Barometric Pressure {Pa}
  5.2,                                    ! Wind Speed {m/s}
  200,                                    ! Wind Direction {deg}
  0,                                      ! Sky Clearness
  0,                                      ! Rain Indicator
  0,                                      ! Snow Indicator
  21,                                     ! Day of Month
  7,                                      ! Month
  SummerDesignDay,                        ! Day Type
  0,                                      ! Daylight Saving Time Indicator
  Dewpoint,                               ! Humidity Indicating Type
  ,                                       ! Humidity Indicating Day Schedule Name
  DefaultMultipliers,                     ! Dry-Bulb Temperature Range Modifier Type
  ,                                       ! Dry-Bulb Temperature Range Modifier Schedule Name
  ASHRAETau,                              ! Solar Model Indicator
  ,                                       ! Beam Solar Day Schedule Name
  ,                                       ! Diffuse Solar Day Schedule Name
  0.407,                                  ! ASHRAE Taub {dimensionless}
  2.215;                                  ! ASHRAE Taud {dimensionless}

OS:ComponentData,
  {d9d0d6e0-a6e7-4e8c-a3c6-c1b39444e33e}, ! Handle
  Component Data 1,                       ! Name
  {550db5e3-d513-4043-990c-44092505b5f4}, ! UUID
  {e04d558b-08fa-4d36-bf66-4528f61da921}, ! Version UUID
  1366308150,                             ! Creation Timestamp
  1366308150,                             ! Version Timestamp
  {db4d0591-47e1-4905-825e-d705568333dd}; ! Name of Object 1

