
OS:Version,
  {7e461925-87cb-48ca-b587-dea6813e205d}, ! Handle
  0.9.3;                                  ! Version Identifier

OS:SizingPeriod:DesignDay,
  {5d07f341-531d-481f-b8bf-cb425c99b223}, ! Handle
  Benson Muni Ann Hum_n 99% Condns DP=>MCDB, ! Name
  -22.1,                                  ! Maximum Dry-Bulb Temperature {C}
  0,                                      ! Daily Dry-Bulb Temperature Range {deltaC}
  -27.8,                                  ! Humidity Indicating Conditions at Maximum Dry-Bulb {BasedOnField A3}
  97574,                                  ! Barometric Pressure {Pa}
  2.7,                                    ! Wind Speed {m/s}
  300,                                    ! Wind Direction {deg}
  0,                                      ! Sky Clearness
  0,                                      ! Rain Indicator
  0,                                      ! Snow Indicator
  21,                                     ! Day of Month
  1,                                      ! Month
  WinterDesignDay,                        ! Day Type
  0,                                      ! Daylight Saving Time Indicator
  Dewpoint,                               ! Humidity Indicating Type
  ,                                       ! Humidity Indicating Day Schedule Name
  DefaultMultipliers,                     ! Dry-Bulb Temperature Range Modifier Type
  ,                                       ! Dry-Bulb Temperature Range Modifier Schedule Name
  ASHRAEClearSky;                         ! Solar Model Indicator

OS:ComponentData,
  {6fba9b42-002d-42b6-a743-daef2f474baf}, ! Handle
  Component Data 1,                       ! Name
  {50132b57-3694-47d6-888a-966d6b02cd6f}, ! UUID
  {cd935556-1e7f-4e0b-86d5-18de3a745fd7}, ! Version UUID
  1366308166,                             ! Creation Timestamp
  1366308166,                             ! Version Timestamp
  {5d07f341-531d-481f-b8bf-cb425c99b223}; ! Name of Object 1

