
OS:Version,
  {8fbc69c1-e4ef-4e8b-a9bf-ecdf3e429a90}, ! Handle
  0.9.3;                                  ! Version Identifier

OS:SizingPeriod:DesignDay,
  {97a31aa9-3e07-4c18-b6a8-4d4b129610bc}, ! Handle
  Bishop Airport Ann Clg 2% Condns WB=>MDB, ! Name
  32.5,                                   ! Maximum Dry-Bulb Temperature {C}
  21.9,                                   ! Daily Dry-Bulb Temperature Range {deltaC}
  17.6,                                   ! Humidity Indicating Conditions at Maximum Dry-Bulb {BasedOnField A3}
  87182,                                  ! Barometric Pressure {Pa}
  4.6,                                    ! Wind Speed {m/s}
  160,                                    ! Wind Direction {deg}
  0,                                      ! Sky Clearness
  0,                                      ! Rain Indicator
  0,                                      ! Snow Indicator
  21,                                     ! Day of Month
  7,                                      ! Month
  SummerDesignDay,                        ! Day Type
  0,                                      ! Daylight Saving Time Indicator
  Wetbulb,                                ! Humidity Indicating Type
  ,                                       ! Humidity Indicating Day Schedule Name
  DefaultMultipliers,                     ! Dry-Bulb Temperature Range Modifier Type
  ,                                       ! Dry-Bulb Temperature Range Modifier Schedule Name
  ASHRAETau,                              ! Solar Model Indicator
  ,                                       ! Beam Solar Day Schedule Name
  ,                                       ! Diffuse Solar Day Schedule Name
  0.509,                                  ! ASHRAE Taub {dimensionless}
  1.813;                                  ! ASHRAE Taud {dimensionless}

