
OS:Version,
  {5c04e307-ca0a-43ec-af43-f720ca0f0877}, ! Handle
  0.9.3;                                  ! Version Identifier

OS:SizingPeriod:DesignDay,
  {b8ebf8e9-1f01-491b-b9f4-771f23c288e8}, ! Handle
  KING_SALMON Ann Htg 99% Condns DB,      ! Name
  -27.9,                                  ! Maximum Dry-Bulb Temperature {C}
  0,                                      ! Daily Dry-Bulb Temperature Range {deltaC}
  -27.9,                                  ! Humidity Indicating Conditions at Maximum Dry-Bulb {BasedOnField A3}
  101145,                                 ! Barometric Pressure {Pa}
  2.4,                                    ! Wind Speed {m/s}
  10,                                     ! Wind Direction {deg}
  0,                                      ! Sky Clearness
  0,                                      ! Rain Indicator
  0,                                      ! Snow Indicator
  21,                                     ! Day of Month
  1,                                      ! Month
  WinterDesignDay,                        ! Day Type
  0,                                      ! Daylight Saving Time Indicator
  Wetbulb,                                ! Humidity Indicating Type
  ,                                       ! Humidity Indicating Day Schedule Name
  DefaultMultipliers,                     ! Dry-Bulb Temperature Range Modifier Type
  ,                                       ! Dry-Bulb Temperature Range Modifier Schedule Name
  ASHRAEClearSky;                         ! Solar Model Indicator

OS:ComponentData,
  {1751c3e3-b6af-4e76-9cd2-b2e4766a5e3c}, ! Handle
  Component Data 1,                       ! Name
  {383d8232-8431-4c91-95f9-401329e3319a}, ! UUID
  {82ebefe6-61e4-43e4-86e8-577c02274c01}, ! Version UUID
  1366305357,                             ! Creation Timestamp
  1366305357,                             ! Version Timestamp
  {b8ebf8e9-1f01-491b-b9f4-771f23c288e8}; ! Name of Object 1

