
OS:Version,
  {a4604c72-878f-49da-be28-a87e85c5ba24}, ! Handle
  0.9.3;                                  ! Version Identifier

OS:SizingPeriod:DesignDay,
  {97773dad-0b9b-452d-bfa2-f493de0cf0cf}, ! Handle
  Bethel Airport Ann Clg .4% Condns DP=>MDB, ! Name
  16.4,                                   ! Maximum Dry-Bulb Temperature {C}
  7.7,                                    ! Daily Dry-Bulb Temperature Range {deltaC}
  14,                                     ! Humidity Indicating Conditions at Maximum Dry-Bulb {BasedOnField A3}
  100869,                                 ! Barometric Pressure {Pa}
  4.9,                                    ! Wind Speed {m/s}
  10,                                     ! Wind Direction {deg}
  0,                                      ! Sky Clearness
  0,                                      ! Rain Indicator
  0,                                      ! Snow Indicator
  21,                                     ! Day of Month
  7,                                      ! Month
  SummerDesignDay,                        ! Day Type
  0,                                      ! Daylight Saving Time Indicator
  Dewpoint,                               ! Humidity Indicating Type
  ,                                       ! Humidity Indicating Day Schedule Name
  DefaultMultipliers,                     ! Dry-Bulb Temperature Range Modifier Type
  ,                                       ! Dry-Bulb Temperature Range Modifier Schedule Name
  ASHRAETau,                              ! Solar Model Indicator
  ,                                       ! Beam Solar Day Schedule Name
  ,                                       ! Diffuse Solar Day Schedule Name
  0.383,                                  ! ASHRAE Taub {dimensionless}
  2.185;                                  ! ASHRAE Taud {dimensionless}

OS:ComponentData,
  {abc9ec4c-3bb4-4086-88ab-e295880fed4f}, ! Handle
  Component Data 1,                       ! Name
  {f18aa9d7-059b-4438-87a4-33e7b146c2eb}, ! UUID
  {ee9d8988-4899-40f9-a478-14190ec4d669}, ! Version UUID
  1366304758,                             ! Creation Timestamp
  1366304758,                             ! Version Timestamp
  {97773dad-0b9b-452d-bfa2-f493de0cf0cf}; ! Name of Object 1

