
OS:Version,
  {8c8417b6-c632-4745-a7cc-832b87be647b}, ! Handle
  0.9.3;                                  ! Version Identifier

OS:SizingPeriod:DesignDay,
  {73abe1b6-564d-48bb-86e2-46203c695659}, ! Handle
  Islip Long Isl Macarthur Ap Ann Clg .4% Condns DB=>MWB, ! Name
  31.4,                                   ! Maximum Dry-Bulb Temperature {C}
  8.4,                                    ! Daily Dry-Bulb Temperature Range {deltaC}
  23,                                     ! Humidity Indicating Conditions at Maximum Dry-Bulb {BasedOnField A3}
  101013,                                 ! Barometric Pressure {Pa}
  4.9,                                    ! Wind Speed {m/s}
  220,                                    ! Wind Direction {deg}
  0,                                      ! Sky Clearness
  0,                                      ! Rain Indicator
  0,                                      ! Snow Indicator
  21,                                     ! Day of Month
  7,                                      ! Month
  SummerDesignDay,                        ! Day Type
  0,                                      ! Daylight Saving Time Indicator
  Wetbulb,                                ! Humidity Indicating Type
  ,                                       ! Humidity Indicating Day Schedule Name
  DefaultMultipliers,                     ! Dry-Bulb Temperature Range Modifier Type
  ,                                       ! Dry-Bulb Temperature Range Modifier Schedule Name
  ASHRAETau,                              ! Solar Model Indicator
  ,                                       ! Beam Solar Day Schedule Name
  ,                                       ! Diffuse Solar Day Schedule Name
  0.533,                                  ! ASHRAE Taub {dimensionless}
  1.82;                                   ! ASHRAE Taud {dimensionless}

OS:ComponentData,
  {89742a8e-d5c9-4195-ab36-f3b6fa531075}, ! Handle
  Component Data 1,                       ! Name
  {232b04bf-9d46-476c-9e34-176a915fa89d}, ! UUID
  {39959f3f-08bc-4f76-8e89-dfd3b723296f}, ! Version UUID
  1366309631,                             ! Creation Timestamp
  1366309631,                             ! Version Timestamp
  {73abe1b6-564d-48bb-86e2-46203c695659}; ! Name of Object 1

