
OS:Version,
  {86720b13-1a45-490d-aef2-2bdd188a861f}, ! Handle
  0.9.3;                                  ! Version Identifier

OS:SizingPeriod:DesignDay,
  {f5e64f5c-cd59-4d92-9fcd-67b3d08f0ca0}, ! Handle
  GRAND_JUNCTION Ann Htg Wind 99% Condns WS=>MCDB, ! Name
  1.3,                                    ! Maximum Dry-Bulb Temperature {C}
  0,                                      ! Daily Dry-Bulb Temperature Range {deltaC}
  1.3,                                    ! Humidity Indicating Conditions at Maximum Dry-Bulb {BasedOnField A3}
  84816,                                  ! Barometric Pressure {Pa}
  7.6,                                    ! Wind Speed {m/s}
  120,                                    ! Wind Direction {deg}
  0,                                      ! Sky Clearness
  0,                                      ! Rain Indicator
  0,                                      ! Snow Indicator
  21,                                     ! Day of Month
  1,                                      ! Month
  WinterDesignDay,                        ! Day Type
  0,                                      ! Daylight Saving Time Indicator
  Wetbulb,                                ! Humidity Indicating Type
  ,                                       ! Humidity Indicating Day Schedule Name
  DefaultMultipliers,                     ! Dry-Bulb Temperature Range Modifier Type
  ,                                       ! Dry-Bulb Temperature Range Modifier Schedule Name
  ASHRAEClearSky;                         ! Solar Model Indicator

OS:ComponentData,
  {6ac578a1-63a9-4243-a37e-2c7e0451fb52}, ! Handle
  Component Data 1,                       ! Name
  {25171527-427c-4828-adc1-be0b669fbecc}, ! UUID
  {b06d3132-acd0-4f90-bfc9-cf983a6a49f0}, ! Version UUID
  1366306702,                             ! Creation Timestamp
  1366306702,                             ! Version Timestamp
  {f5e64f5c-cd59-4d92-9fcd-67b3d08f0ca0}; ! Name of Object 1

