
OS:Version,
  {4be5f01a-6537-4d46-ad84-f18f3066a3bd}, ! Handle
  0.9.3;                                  ! Version Identifier

OS:SizingPeriod:DesignDay,
  {dcd468aa-cbba-48b9-a4e2-3caa46f54f80}, ! Handle
  BARROW Ann Clg .4% Condns DB=>MWB,      ! Name
  14.2,                                   ! Maximum Dry-Bulb Temperature {C}
  6.3,                                    ! Daily Dry-Bulb Temperature Range {deltaC}
  11.3,                                   ! Humidity Indicating Conditions at Maximum Dry-Bulb {BasedOnField A3}
  101277,                                 ! Barometric Pressure {Pa}
  5.2,                                    ! Wind Speed {m/s}
  180,                                    ! Wind Direction {deg}
  0,                                      ! Sky Clearness
  0,                                      ! Rain Indicator
  0,                                      ! Snow Indicator
  21,                                     ! Day of Month
  7,                                      ! Month
  SummerDesignDay,                        ! Day Type
  0,                                      ! Daylight Saving Time Indicator
  Wetbulb,                                ! Humidity Indicating Type
  ,                                       ! Humidity Indicating Day Schedule Name
  DefaultMultipliers,                     ! Dry-Bulb Temperature Range Modifier Type
  ,                                       ! Dry-Bulb Temperature Range Modifier Schedule Name
  ASHRAETau,                              ! Solar Model Indicator
  ,                                       ! Beam Solar Day Schedule Name
  ,                                       ! Diffuse Solar Day Schedule Name
  0.344,                                  ! ASHRAE Taub {dimensionless}
  2.25;                                   ! ASHRAE Taud {dimensionless}

OS:ComponentData,
  {875b5d8f-2762-47d6-8c11-247d54d69b75}, ! Handle
  Component Data 1,                       ! Name
  {87d29d0e-2598-4854-9ae1-b158e67528f2}, ! UUID
  {57569f21-c4ec-44f0-894b-15711145c3bf}, ! Version UUID
  1366304740,                             ! Creation Timestamp
  1366304740,                             ! Version Timestamp
  {dcd468aa-cbba-48b9-a4e2-3caa46f54f80}; ! Name of Object 1

