
OS:Version,
  {b558b6cb-ef81-4aba-97de-da23d05bdea0}, ! Handle
  0.9.3;                                  ! Version Identifier

OS:SizingPeriod:DesignDay,
  {8fd81502-a54f-4004-ad8c-8704d6a8bc1f}, ! Handle
  Huron Ann Clg .4% Condns DB=>MWB,       ! Name
  34.7,                                   ! Maximum Dry-Bulb Temperature {C}
  12.7,                                   ! Daily Dry-Bulb Temperature Range {deltaC}
  23.3,                                   ! Humidity Indicating Conditions at Maximum Dry-Bulb {BasedOnField A3}
  96692,                                  ! Barometric Pressure {Pa}
  6,                                      ! Wind Speed {m/s}
  180,                                    ! Wind Direction {deg}
  0,                                      ! Sky Clearness
  0,                                      ! Rain Indicator
  0,                                      ! Snow Indicator
  21,                                     ! Day of Month
  7,                                      ! Month
  SummerDesignDay,                        ! Day Type
  0,                                      ! Daylight Saving Time Indicator
  Wetbulb,                                ! Humidity Indicating Type
  ,                                       ! Humidity Indicating Day Schedule Name
  DefaultMultipliers,                     ! Dry-Bulb Temperature Range Modifier Type
  ,                                       ! Dry-Bulb Temperature Range Modifier Schedule Name
  ASHRAETau,                              ! Solar Model Indicator
  ,                                       ! Beam Solar Day Schedule Name
  ,                                       ! Diffuse Solar Day Schedule Name
  0.398,                                  ! ASHRAE Taub {dimensionless}
  2.269;                                  ! ASHRAE Taud {dimensionless}

OS:ComponentData,
  {52ee2236-3bf5-4bb6-9d7c-9ea77e5026cb}, ! Handle
  Component Data 1,                       ! Name
  {47eb6177-0f1d-4796-9967-8ac8c673f633}, ! UUID
  {88f45bbf-4cb9-4277-bb6b-35a33fca4bf1}, ! Version UUID
  1366310403,                             ! Creation Timestamp
  1366310403,                             ! Version Timestamp
  {8fd81502-a54f-4004-ad8c-8704d6a8bc1f}; ! Name of Object 1

