
OS:Version,
  {18ba089f-9bb8-4a69-b5c6-52992ae9dee5}, ! Handle
  0.9.3;                                  ! Version Identifier

OS:SizingPeriod:DesignDay,
  {333b3e64-4aff-4937-885c-2e943e895339}, ! Handle
  Hays Muni  Awos Ann Clg 1% Condns DP=>MDB, ! Name
  27.1,                                   ! Maximum Dry-Bulb Temperature {C}
  14.1,                                   ! Daily Dry-Bulb Temperature Range {deltaC}
  21,                                     ! Humidity Indicating Conditions at Maximum Dry-Bulb {BasedOnField A3}
  94220,                                  ! Barometric Pressure {Pa}
  7.9,                                    ! Wind Speed {m/s}
  190,                                    ! Wind Direction {deg}
  0,                                      ! Sky Clearness
  0,                                      ! Rain Indicator
  0,                                      ! Snow Indicator
  21,                                     ! Day of Month
  7,                                      ! Month
  SummerDesignDay,                        ! Day Type
  0,                                      ! Daylight Saving Time Indicator
  Dewpoint,                               ! Humidity Indicating Type
  ,                                       ! Humidity Indicating Day Schedule Name
  DefaultMultipliers,                     ! Dry-Bulb Temperature Range Modifier Type
  ,                                       ! Dry-Bulb Temperature Range Modifier Schedule Name
  ASHRAETau,                              ! Solar Model Indicator
  ,                                       ! Beam Solar Day Schedule Name
  ,                                       ! Diffuse Solar Day Schedule Name
  0.433,                                  ! ASHRAE Taub {dimensionless}
  2.099;                                  ! ASHRAE Taud {dimensionless}

OS:ComponentData,
  {0d5e598f-ef14-4b70-a406-bb25600fe445}, ! Handle
  Component Data 1,                       ! Name
  {4d28bd01-bfe1-4ceb-94f8-0b3150a1c14f}, ! UUID
  {146afe56-3d7d-4ccf-8b96-b1f58aed3bd9}, ! Version UUID
  1366307546,                             ! Creation Timestamp
  1366307546,                             ! Version Timestamp
  {333b3e64-4aff-4937-885c-2e943e895339}; ! Name of Object 1

