
OS:Version,
  {efb66146-27b6-4e94-a999-f5574caf50fc}, ! Handle
  0.9.3;                                  ! Version Identifier

OS:SizingPeriod:DesignDay,
  {99f313db-c142-49bc-86a4-317eecc08e9b}, ! Handle
  Albuquerque Intl Arpt  Isis Ann Clg 1% Condns DP=>MDB, ! Name
  20.2,                                   ! Maximum Dry-Bulb Temperature {C}
  13.5,                                   ! Daily Dry-Bulb Temperature Range {deltaC}
  15.7,                                   ! Humidity Indicating Conditions at Maximum Dry-Bulb {BasedOnField A3}
  83328,                                  ! Barometric Pressure {Pa}
  4.4,                                    ! Wind Speed {m/s}
  220,                                    ! Wind Direction {deg}
  0,                                      ! Sky Clearness
  0,                                      ! Rain Indicator
  0,                                      ! Snow Indicator
  21,                                     ! Day of Month
  7,                                      ! Month
  SummerDesignDay,                        ! Day Type
  0,                                      ! Daylight Saving Time Indicator
  Dewpoint,                               ! Humidity Indicating Type
  ,                                       ! Humidity Indicating Day Schedule Name
  DefaultMultipliers,                     ! Dry-Bulb Temperature Range Modifier Type
  ,                                       ! Dry-Bulb Temperature Range Modifier Schedule Name
  ASHRAETau,                              ! Solar Model Indicator
  ,                                       ! Beam Solar Day Schedule Name
  ,                                       ! Diffuse Solar Day Schedule Name
  0.463,                                  ! ASHRAE Taub {dimensionless}
  1.887;                                  ! ASHRAE Taud {dimensionless}

OS:ComponentData,
  {621a7fde-b930-449d-920b-d617cc7b0fe0}, ! Handle
  Component Data 1,                       ! Name
  {bcfb816e-03c7-4e3f-880a-e5385887f155}, ! UUID
  {07bfdc43-5279-4b36-b8c6-641d49e8021d}, ! Version UUID
  1366309370,                             ! Creation Timestamp
  1366309370,                             ! Version Timestamp
  {99f313db-c142-49bc-86a4-317eecc08e9b}; ! Name of Object 1

