
OS:Version,
  {ae0f92d2-efae-4c4f-bc15-a5d0d7892be3}, ! Handle
  0.9.3;                                  ! Version Identifier

OS:SizingPeriod:DesignDay,
  {daa3c9ae-5de3-4dcf-a975-a15243677b37}, ! Handle
  Grand Forks Af Ann Clg 1% Condns DB=>MWB, ! Name
  30.9,                                   ! Maximum Dry-Bulb Temperature {C}
  12.4,                                   ! Daily Dry-Bulb Temperature Range {deltaC}
  21.2,                                   ! Humidity Indicating Conditions at Maximum Dry-Bulb {BasedOnField A3}
  98053,                                  ! Barometric Pressure {Pa}
  5.8,                                    ! Wind Speed {m/s}
  180,                                    ! Wind Direction {deg}
  0,                                      ! Sky Clearness
  0,                                      ! Rain Indicator
  0,                                      ! Snow Indicator
  21,                                     ! Day of Month
  7,                                      ! Month
  SummerDesignDay,                        ! Day Type
  0,                                      ! Daylight Saving Time Indicator
  Wetbulb,                                ! Humidity Indicating Type
  ,                                       ! Humidity Indicating Day Schedule Name
  DefaultMultipliers,                     ! Dry-Bulb Temperature Range Modifier Type
  ,                                       ! Dry-Bulb Temperature Range Modifier Schedule Name
  ASHRAETau,                              ! Solar Model Indicator
  ,                                       ! Beam Solar Day Schedule Name
  ,                                       ! Diffuse Solar Day Schedule Name
  0.393,                                  ! ASHRAE Taub {dimensionless}
  2.263;                                  ! ASHRAE Taud {dimensionless}

OS:ComponentData,
  {9b6a143c-65c2-4472-8648-d5651d6a816d}, ! Handle
  Component Data 1,                       ! Name
  {c6fa0b64-867b-46a5-b6d4-1b8dc2eb54ba}, ! UUID
  {c9806f1d-08ce-4891-aee8-d7020cf2e2e5}, ! Version UUID
  1366309042,                             ! Creation Timestamp
  1366309042,                             ! Version Timestamp
  {daa3c9ae-5de3-4dcf-a975-a15243677b37}; ! Name of Object 1

