
OS:Version,
  {f8ad19bd-88d1-4880-a7f8-34aec5639cdb}, ! Handle
  0.9.3;                                  ! Version Identifier

OS:SizingPeriod:DesignDay,
  {3eb3ed19-5c73-417e-af7e-c58b1944c291}, ! Handle
  Goldsboro Seymour Johnson Afb Ann Clg .4% Condns WB=>MDB, ! Name
  32.3,                                   ! Maximum Dry-Bulb Temperature {C}
  10,                                     ! Daily Dry-Bulb Temperature Range {deltaC}
  26.5,                                   ! Humidity Indicating Conditions at Maximum Dry-Bulb {BasedOnField A3}
  100929,                                 ! Barometric Pressure {Pa}
  3.5,                                    ! Wind Speed {m/s}
  230,                                    ! Wind Direction {deg}
  0,                                      ! Sky Clearness
  0,                                      ! Rain Indicator
  0,                                      ! Snow Indicator
  21,                                     ! Day of Month
  7,                                      ! Month
  SummerDesignDay,                        ! Day Type
  0,                                      ! Daylight Saving Time Indicator
  Wetbulb,                                ! Humidity Indicating Type
  ,                                       ! Humidity Indicating Day Schedule Name
  DefaultMultipliers,                     ! Dry-Bulb Temperature Range Modifier Type
  ,                                       ! Dry-Bulb Temperature Range Modifier Schedule Name
  ASHRAETau,                              ! Solar Model Indicator
  ,                                       ! Beam Solar Day Schedule Name
  ,                                       ! Diffuse Solar Day Schedule Name
  0.598,                                  ! ASHRAE Taub {dimensionless}
  1.681;                                  ! ASHRAE Taud {dimensionless}

OS:ComponentData,
  {5fc7ec5c-641c-4891-a878-dd8af4a9930d}, ! Handle
  Component Data 1,                       ! Name
  {818cbfd7-887a-4cb4-a97e-77c1c3ef6ba0}, ! UUID
  {b34fdfe8-b118-4bf4-a9e2-0437f7c8d7e4}, ! Version UUID
  1366308924,                             ! Creation Timestamp
  1366308924,                             ! Version Timestamp
  {3eb3ed19-5c73-417e-af7e-c58b1944c291}; ! Name of Object 1

