
OS:Version,
  {801f9d0a-6999-40e4-bc77-b78ecf525a46}, ! Handle
  0.9.3;                                  ! Version Identifier

OS:SizingPeriod:DesignDay,
  {bbe0665a-d0b0-45cf-9006-0a6a4de70bb8}, ! Handle
  Chicago/Midway Ann Clg .4% Condns WB=>MDB, ! Name
  31.3,                                   ! Maximum Dry-Bulb Temperature {C}
  8.8,                                    ! Daily Dry-Bulb Temperature Range {deltaC}
  25.6,                                   ! Humidity Indicating Conditions at Maximum Dry-Bulb {BasedOnField A3}
  99099,                                  ! Barometric Pressure {Pa}
  5.6,                                    ! Wind Speed {m/s}
  220,                                    ! Wind Direction {deg}
  0,                                      ! Sky Clearness
  0,                                      ! Rain Indicator
  0,                                      ! Snow Indicator
  21,                                     ! Day of Month
  7,                                      ! Month
  SummerDesignDay,                        ! Day Type
  0,                                      ! Daylight Saving Time Indicator
  Wetbulb,                                ! Humidity Indicating Type
  ,                                       ! Humidity Indicating Day Schedule Name
  DefaultMultipliers,                     ! Dry-Bulb Temperature Range Modifier Type
  ,                                       ! Dry-Bulb Temperature Range Modifier Schedule Name
  ASHRAETau,                              ! Solar Model Indicator
  ,                                       ! Beam Solar Day Schedule Name
  ,                                       ! Diffuse Solar Day Schedule Name
  0.457,                                  ! ASHRAE Taub {dimensionless}
  2.043;                                  ! ASHRAE Taud {dimensionless}

OS:ComponentData,
  {6e348ecc-13bf-4336-9458-889a69eb9f4e}, ! Handle
  Component Data 1,                       ! Name
  {30916390-5e41-40fa-bd8c-2ef332feb49f}, ! UUID
  {e189ee57-15b5-490b-8f95-1554f5520ae5}, ! Version UUID
  1366307339,                             ! Creation Timestamp
  1366307339,                             ! Version Timestamp
  {bbe0665a-d0b0-45cf-9006-0a6a4de70bb8}; ! Name of Object 1

