
OS:Version,
  {3468340c-47c9-4416-bde8-198e5f42b980}, ! Handle
  0.9.3;                                  ! Version Identifier

OS:SizingPeriod:DesignDay,
  {90aad510-01bb-4d9f-9667-d0d6d841f35e}, ! Handle
  Austin Ann Clg 2% Condns DP=>MDB,       ! Name
  27.1,                                   ! Maximum Dry-Bulb Temperature {C}
  12.5,                                   ! Daily Dry-Bulb Temperature Range {deltaC}
  24,                                     ! Humidity Indicating Conditions at Maximum Dry-Bulb {BasedOnField A3}
  99075,                                  ! Barometric Pressure {Pa}
  3.7,                                    ! Wind Speed {m/s}
  190,                                    ! Wind Direction {deg}
  0,                                      ! Sky Clearness
  0,                                      ! Rain Indicator
  0,                                      ! Snow Indicator
  21,                                     ! Day of Month
  8,                                      ! Month
  SummerDesignDay,                        ! Day Type
  0,                                      ! Daylight Saving Time Indicator
  Dewpoint,                               ! Humidity Indicating Type
  ,                                       ! Humidity Indicating Day Schedule Name
  DefaultMultipliers,                     ! Dry-Bulb Temperature Range Modifier Type
  ,                                       ! Dry-Bulb Temperature Range Modifier Schedule Name
  ASHRAETau,                              ! Solar Model Indicator
  ,                                       ! Beam Solar Day Schedule Name
  ,                                       ! Diffuse Solar Day Schedule Name
  0.457,                                  ! ASHRAE Taub {dimensionless}
  2.114;                                  ! ASHRAE Taud {dimensionless}

OS:ComponentData,
  {5f129345-e4a1-4237-94a5-257eb956a82e}, ! Handle
  Component Data 1,                       ! Name
  {735d6205-f5e6-458b-bff7-4f4c9cc86d5e}, ! UUID
  {9738639d-6310-40db-8323-5929ed49e535}, ! Version UUID
  1366310583,                             ! Creation Timestamp
  1366310583,                             ! Version Timestamp
  {90aad510-01bb-4d9f-9667-d0d6d841f35e}; ! Name of Object 1

