
OS:Version,
  {bddc7add-e435-4bf9-aa39-771a3d19792d}, ! Handle
  0.9.3;                                  ! Version Identifier

OS:SizingPeriod:DesignDay,
  {2bb53bf9-7e15-4151-b936-e6a0e79d9949}, ! Handle
  Houlton Intl Arpt Ann Htg 99% Condns DB, ! Name
  -23.7,                                  ! Maximum Dry-Bulb Temperature {C}
  0,                                      ! Daily Dry-Bulb Temperature Range {deltaC}
  -23.7,                                  ! Humidity Indicating Conditions at Maximum Dry-Bulb {BasedOnField A3}
  99536,                                  ! Barometric Pressure {Pa}
  2.2,                                    ! Wind Speed {m/s}
  200,                                    ! Wind Direction {deg}
  0,                                      ! Sky Clearness
  0,                                      ! Rain Indicator
  0,                                      ! Snow Indicator
  21,                                     ! Day of Month
  1,                                      ! Month
  WinterDesignDay,                        ! Day Type
  0,                                      ! Daylight Saving Time Indicator
  Wetbulb,                                ! Humidity Indicating Type
  ,                                       ! Humidity Indicating Day Schedule Name
  DefaultMultipliers,                     ! Dry-Bulb Temperature Range Modifier Type
  ,                                       ! Dry-Bulb Temperature Range Modifier Schedule Name
  ASHRAEClearSky;                         ! Solar Model Indicator

OS:ComponentData,
  {9c0c9160-a7a2-44fe-b854-5f5f51b3b56b}, ! Handle
  Component Data 1,                       ! Name
  {e3a33c2e-8c03-448f-9f3b-e26c33e0b611}, ! UUID
  {4f0fa673-4d6c-4e1c-b485-c1470c7ae91f}, ! Version UUID
  1366307901,                             ! Creation Timestamp
  1366307901,                             ! Version Timestamp
  {2bb53bf9-7e15-4151-b936-e6a0e79d9949}; ! Name of Object 1

