
OS:Version,
  {aef5ae95-3b63-4595-9119-36ae6f2db53c}, ! Handle
  0.9.3;                                  ! Version Identifier

OS:SizingPeriod:DesignDay,
  {54499462-7988-424f-9a13-4b361690959d}, ! Handle
  CHARLESTON Ann Htg Wind 99.6% Condns WS=>MCDB, ! Name
  4.9,                                    ! Maximum Dry-Bulb Temperature {C}
  0,                                      ! Daily Dry-Bulb Temperature Range {deltaC}
  4.9,                                    ! Humidity Indicating Conditions at Maximum Dry-Bulb {BasedOnField A3}
  97889,                                  ! Barometric Pressure {Pa}
  9.3,                                    ! Wind Speed {m/s}
  240,                                    ! Wind Direction {deg}
  0,                                      ! Sky Clearness
  0,                                      ! Rain Indicator
  0,                                      ! Snow Indicator
  21,                                     ! Day of Month
  1,                                      ! Month
  WinterDesignDay,                        ! Day Type
  0,                                      ! Daylight Saving Time Indicator
  Wetbulb,                                ! Humidity Indicating Type
  ,                                       ! Humidity Indicating Day Schedule Name
  DefaultMultipliers,                     ! Dry-Bulb Temperature Range Modifier Type
  ,                                       ! Dry-Bulb Temperature Range Modifier Schedule Name
  ASHRAEClearSky;                         ! Solar Model Indicator

OS:ComponentData,
  {1f8432b9-c2f6-4285-8077-4e8fea01267b}, ! Handle
  Component Data 1,                       ! Name
  {48cf90e0-94e6-4153-9ba0-c72e1f0fea45}, ! UUID
  {ae95ad9f-1e97-4cc3-b4d8-79acb957e422}, ! Version UUID
  1366311629,                             ! Creation Timestamp
  1366311629,                             ! Version Timestamp
  {54499462-7988-424f-9a13-4b361690959d}; ! Name of Object 1

