
OS:Version,
  {a4ea67a0-f3c0-4c85-8e41-26cb4ebe5d6c}, ! Handle
  0.9.3;                                  ! Version Identifier

OS:SizingPeriod:DesignDay,
  {02f74cc4-060f-465c-adc3-7202d993862f}, ! Handle
  Huron Ann Clg 2% Condns DP=>MDB,        ! Name
  26.8,                                   ! Maximum Dry-Bulb Temperature {C}
  12.7,                                   ! Daily Dry-Bulb Temperature Range {deltaC}
  21.1,                                   ! Humidity Indicating Conditions at Maximum Dry-Bulb {BasedOnField A3}
  96692,                                  ! Barometric Pressure {Pa}
  6,                                      ! Wind Speed {m/s}
  180,                                    ! Wind Direction {deg}
  0,                                      ! Sky Clearness
  0,                                      ! Rain Indicator
  0,                                      ! Snow Indicator
  21,                                     ! Day of Month
  7,                                      ! Month
  SummerDesignDay,                        ! Day Type
  0,                                      ! Daylight Saving Time Indicator
  Dewpoint,                               ! Humidity Indicating Type
  ,                                       ! Humidity Indicating Day Schedule Name
  DefaultMultipliers,                     ! Dry-Bulb Temperature Range Modifier Type
  ,                                       ! Dry-Bulb Temperature Range Modifier Schedule Name
  ASHRAETau,                              ! Solar Model Indicator
  ,                                       ! Beam Solar Day Schedule Name
  ,                                       ! Diffuse Solar Day Schedule Name
  0.398,                                  ! ASHRAE Taub {dimensionless}
  2.269;                                  ! ASHRAE Taud {dimensionless}

OS:ComponentData,
  {0a3115b0-9d0e-4c49-bbd3-4bbbbde39650}, ! Handle
  Component Data 1,                       ! Name
  {8aa18df1-7677-402e-a570-95fda369e18b}, ! UUID
  {d843b3a9-649e-43fb-b424-c249ff0f3731}, ! Version UUID
  1366310405,                             ! Creation Timestamp
  1366310405,                             ! Version Timestamp
  {02f74cc4-060f-465c-adc3-7202d993862f}; ! Name of Object 1

