
OS:Version,
  {53bf2e84-3d06-4eea-9f7b-5b1ed8020c70}, ! Handle
  0.9.3;                                  ! Version Identifier

OS:SizingPeriod:DesignDay,
  {2ad3ab6d-8aab-4bb7-8f37-c596263a3d8f}, ! Handle
  Leesburg Godfrey Ann Clg 2% Condns WB=>MDB, ! Name
  30.3,                                   ! Maximum Dry-Bulb Temperature {C}
  11.8,                                   ! Daily Dry-Bulb Temperature Range {deltaC}
  24.8,                                   ! Humidity Indicating Conditions at Maximum Dry-Bulb {BasedOnField A3}
  99904,                                  ! Barometric Pressure {Pa}
  2.9,                                    ! Wind Speed {m/s}
  250,                                    ! Wind Direction {deg}
  0,                                      ! Sky Clearness
  0,                                      ! Rain Indicator
  0,                                      ! Snow Indicator
  21,                                     ! Day of Month
  7,                                      ! Month
  SummerDesignDay,                        ! Day Type
  0,                                      ! Daylight Saving Time Indicator
  Wetbulb,                                ! Humidity Indicating Type
  ,                                       ! Humidity Indicating Day Schedule Name
  DefaultMultipliers,                     ! Dry-Bulb Temperature Range Modifier Type
  ,                                       ! Dry-Bulb Temperature Range Modifier Schedule Name
  ASHRAETau,                              ! Solar Model Indicator
  ,                                       ! Beam Solar Day Schedule Name
  ,                                       ! Diffuse Solar Day Schedule Name
  0.537,                                  ! ASHRAE Taub {dimensionless}
  1.8;                                    ! ASHRAE Taud {dimensionless}

OS:ComponentData,
  {741a4c5f-eea3-41ae-8a49-5bf33c2d9653}, ! Handle
  Component Data 1,                       ! Name
  {273f3a27-73bc-494f-9df7-c8d7c835b467}, ! UUID
  {4ed65f4b-c369-40d5-8ff8-11db1988f015}, ! Version UUID
  1366311077,                             ! Creation Timestamp
  1366311077,                             ! Version Timestamp
  {2ad3ab6d-8aab-4bb7-8f37-c596263a3d8f}; ! Name of Object 1

