
OS:Version,
  {4b65dde8-e05b-429d-9da0-905884b32f96}, ! Handle
  0.9.3;                                  ! Version Identifier

OS:SizingPeriod:DesignDay,
  {5030ee25-e012-42ed-bb6b-213ba2658e71}, ! Handle
  Greer GreenvL Spartanbrg Ap Ann Clg .4% Condns DB=>MWB, ! Name
  34.4,                                   ! Maximum Dry-Bulb Temperature {C}
  10.6,                                   ! Daily Dry-Bulb Temperature Range {deltaC}
  23.4,                                   ! Humidity Indicating Conditions at Maximum Dry-Bulb {BasedOnField A3}
  97866,                                  ! Barometric Pressure {Pa}
  3.6,                                    ! Wind Speed {m/s}
  230,                                    ! Wind Direction {deg}
  0,                                      ! Sky Clearness
  0,                                      ! Rain Indicator
  0,                                      ! Snow Indicator
  21,                                     ! Day of Month
  7,                                      ! Month
  SummerDesignDay,                        ! Day Type
  0,                                      ! Daylight Saving Time Indicator
  Wetbulb,                                ! Humidity Indicating Type
  ,                                       ! Humidity Indicating Day Schedule Name
  DefaultMultipliers,                     ! Dry-Bulb Temperature Range Modifier Type
  ,                                       ! Dry-Bulb Temperature Range Modifier Schedule Name
  ASHRAETau,                              ! Solar Model Indicator
  ,                                       ! Beam Solar Day Schedule Name
  ,                                       ! Diffuse Solar Day Schedule Name
  0.545,                                  ! ASHRAE Taub {dimensionless}
  1.796;                                  ! ASHRAE Taud {dimensionless}

OS:ComponentData,
  {0ad04a42-153c-44fa-acb9-7b89ffb3c23d}, ! Handle
  Component Data 1,                       ! Name
  {db778fa3-885f-46ef-82d0-a9b123a39803}, ! UUID
  {c1bad949-f1d4-4b9d-bae0-4df49c1be541}, ! Version UUID
  1366310368,                             ! Creation Timestamp
  1366310368,                             ! Version Timestamp
  {5030ee25-e012-42ed-bb6b-213ba2658e71}; ! Name of Object 1

