
OS:Version,
  {c89175d7-1f20-4e29-a8f2-ab4d7b5a641e}, ! Handle
  0.9.3;                                  ! Version Identifier

OS:SizingPeriod:DesignDay,
  {e22058e9-77b0-4651-9603-15faa8e4b766}, ! Handle
  Austin Mueller Municipal Ap Ann Clg 2% Condns Enth=>MDB, ! Name
  31.4,                                   ! Maximum Dry-Bulb Temperature {C}
  12.5,                                   ! Daily Dry-Bulb Temperature Range {deltaC}
  78400,                                  ! Humidity Indicating Conditions at Maximum Dry-Bulb {BasedOnField A3}
  98792,                                  ! Barometric Pressure {Pa}
  3.7,                                    ! Wind Speed {m/s}
  190,                                    ! Wind Direction {deg}
  0,                                      ! Sky Clearness
  0,                                      ! Rain Indicator
  0,                                      ! Snow Indicator
  21,                                     ! Day of Month
  8,                                      ! Month
  SummerDesignDay,                        ! Day Type
  0,                                      ! Daylight Saving Time Indicator
  Enthalpy,                               ! Humidity Indicating Type
  ,                                       ! Humidity Indicating Day Schedule Name
  DefaultMultipliers,                     ! Dry-Bulb Temperature Range Modifier Type
  ,                                       ! Dry-Bulb Temperature Range Modifier Schedule Name
  ASHRAETau,                              ! Solar Model Indicator
  ,                                       ! Beam Solar Day Schedule Name
  ,                                       ! Diffuse Solar Day Schedule Name
  0.457,                                  ! ASHRAE Taub {dimensionless}
  2.114;                                  ! ASHRAE Taud {dimensionless}

OS:ComponentData,
  {6f0db48b-3c7f-4ff5-9c4a-9f69d31ab6c1}, ! Handle
  Component Data 1,                       ! Name
  {fa5b29ba-dc7c-41c2-b65e-31af5a993a37}, ! UUID
  {1a31e3a9-3a11-405f-9f80-78f2d7594cf0}, ! Version UUID
  1366310587,                             ! Creation Timestamp
  1366310587,                             ! Version Timestamp
  {e22058e9-77b0-4651-9603-15faa8e4b766}; ! Name of Object 1

