
OS:Version,
  {da7c7a55-954f-4762-8da1-50c6c9299bf9}, ! Handle
  0.9.3;                                  ! Version Identifier

OS:SizingPeriod:DesignDay,
  {86909b67-29ae-4413-bb1c-311df8dfe9ed}, ! Handle
  Flint Ann Htg 99.6% Condns DB,          ! Name
  -18.3,                                  ! Maximum Dry-Bulb Temperature {C}
  0,                                      ! Daily Dry-Bulb Temperature Range {deltaC}
  -18.3,                                  ! Humidity Indicating Conditions at Maximum Dry-Bulb {BasedOnField A3}
  98557,                                  ! Barometric Pressure {Pa}
  3.8,                                    ! Wind Speed {m/s}
  220,                                    ! Wind Direction {deg}
  0,                                      ! Sky Clearness
  0,                                      ! Rain Indicator
  0,                                      ! Snow Indicator
  21,                                     ! Day of Month
  1,                                      ! Month
  WinterDesignDay,                        ! Day Type
  0,                                      ! Daylight Saving Time Indicator
  Wetbulb,                                ! Humidity Indicating Type
  ,                                       ! Humidity Indicating Day Schedule Name
  DefaultMultipliers,                     ! Dry-Bulb Temperature Range Modifier Type
  ,                                       ! Dry-Bulb Temperature Range Modifier Schedule Name
  ASHRAEClearSky;                         ! Solar Model Indicator

OS:ComponentData,
  {010587c3-b76a-4bb7-b530-1321a791a114}, ! Handle
  Component Data 1,                       ! Name
  {db539443-57ed-4ef5-9b5f-1da728c44770}, ! UUID
  {c81c8e47-182f-49a2-a10e-20d28f222ffc}, ! Version UUID
  1366307994,                             ! Creation Timestamp
  1366307994,                             ! Version Timestamp
  {86909b67-29ae-4413-bb1c-311df8dfe9ed}; ! Name of Object 1

