
OS:Version,
  {727bc5fc-8902-4a49-9e62-c66d42002cf9}, ! Handle
  0.9.3;                                  ! Version Identifier

OS:SizingPeriod:DesignDay,
  {f50be8f6-2d3f-40eb-a031-a5c7344e9b69}, ! Handle
  Big Delta/Ft Greely Ann Hum_n 99% Condns DP=>MCDB, ! Name
  -31.7,                                  ! Maximum Dry-Bulb Temperature {C}
  0,                                      ! Daily Dry-Bulb Temperature Range {deltaC}
  -38.8,                                  ! Humidity Indicating Conditions at Maximum Dry-Bulb {BasedOnField A3}
  96715,                                  ! Barometric Pressure {Pa}
  1,                                      ! Wind Speed {m/s}
  180,                                    ! Wind Direction {deg}
  0,                                      ! Sky Clearness
  0,                                      ! Rain Indicator
  0,                                      ! Snow Indicator
  21,                                     ! Day of Month
  1,                                      ! Month
  WinterDesignDay,                        ! Day Type
  0,                                      ! Daylight Saving Time Indicator
  Dewpoint,                               ! Humidity Indicating Type
  ,                                       ! Humidity Indicating Day Schedule Name
  DefaultMultipliers,                     ! Dry-Bulb Temperature Range Modifier Type
  ,                                       ! Dry-Bulb Temperature Range Modifier Schedule Name
  ASHRAEClearSky;                         ! Solar Model Indicator

OS:ComponentData,
  {346f02ce-76ac-4e90-86a7-7382b343673d}, ! Handle
  Component Data 1,                       ! Name
  {b4d7cf63-0c37-4138-80d0-98d060016edb}, ! UUID
  {d1ecf215-a859-4ae4-bb3a-46687c4cf871}, ! Version UUID
  1366304771,                             ! Creation Timestamp
  1366304771,                             ! Version Timestamp
  {f50be8f6-2d3f-40eb-a031-a5c7344e9b69}; ! Name of Object 1

