
OS:Version,
  {e8515a92-d591-4827-81e7-e02fef33b458}, ! Handle
  0.9.3;                                  ! Version Identifier

OS:SizingPeriod:DesignDay,
  {476c1467-626d-42cf-a130-fa461e4393e2}, ! Handle
  Annette Island Ap Ann Clg .4% Condns DB=>MWB, ! Name
  22.7,                                   ! Maximum Dry-Bulb Temperature {C}
  5.2,                                    ! Daily Dry-Bulb Temperature Range {deltaC}
  16,                                     ! Humidity Indicating Conditions at Maximum Dry-Bulb {BasedOnField A3}
  100929,                                 ! Barometric Pressure {Pa}
  3.4,                                    ! Wind Speed {m/s}
  300,                                    ! Wind Direction {deg}
  0,                                      ! Sky Clearness
  0,                                      ! Rain Indicator
  0,                                      ! Snow Indicator
  21,                                     ! Day of Month
  8,                                      ! Month
  SummerDesignDay,                        ! Day Type
  0,                                      ! Daylight Saving Time Indicator
  Wetbulb,                                ! Humidity Indicating Type
  ,                                       ! Humidity Indicating Day Schedule Name
  DefaultMultipliers,                     ! Dry-Bulb Temperature Range Modifier Type
  ,                                       ! Dry-Bulb Temperature Range Modifier Schedule Name
  ASHRAETau,                              ! Solar Model Indicator
  ,                                       ! Beam Solar Day Schedule Name
  ,                                       ! Diffuse Solar Day Schedule Name
  0.369,                                  ! ASHRAE Taub {dimensionless}
  2.372;                                  ! ASHRAE Taud {dimensionless}

OS:ComponentData,
  {213160d9-0893-4c89-9206-2b3021e2d620}, ! Handle
  Component Data 1,                       ! Name
  {978e0917-0c72-428b-bc41-e6a38af0b838}, ! UUID
  {1cd7ec7f-00fd-4bca-9795-ea05641fc4a5}, ! Version UUID
  1366304727,                             ! Creation Timestamp
  1366304727,                             ! Version Timestamp
  {476c1467-626d-42cf-a130-fa461e4393e2}; ! Name of Object 1

