
OS:Version,
  {503f71c9-833d-43a5-925e-be24252ed8fd}, ! Handle
  0.9.3;                                  ! Version Identifier

OS:SizingPeriod:DesignDay,
  {3d30e668-676a-4c04-ba22-3d3242227835}, ! Handle
  Bishop Airport Ann Clg 2% Condns Enth=>MDB, ! Name
  32.3,                                   ! Maximum Dry-Bulb Temperature {C}
  21.9,                                   ! Daily Dry-Bulb Temperature Range {deltaC}
  54100,                                  ! Humidity Indicating Conditions at Maximum Dry-Bulb {BasedOnField A3}
  87182,                                  ! Barometric Pressure {Pa}
  4.6,                                    ! Wind Speed {m/s}
  160,                                    ! Wind Direction {deg}
  0,                                      ! Sky Clearness
  0,                                      ! Rain Indicator
  0,                                      ! Snow Indicator
  21,                                     ! Day of Month
  7,                                      ! Month
  SummerDesignDay,                        ! Day Type
  0,                                      ! Daylight Saving Time Indicator
  Enthalpy,                               ! Humidity Indicating Type
  ,                                       ! Humidity Indicating Day Schedule Name
  DefaultMultipliers,                     ! Dry-Bulb Temperature Range Modifier Type
  ,                                       ! Dry-Bulb Temperature Range Modifier Schedule Name
  ASHRAETau,                              ! Solar Model Indicator
  ,                                       ! Beam Solar Day Schedule Name
  ,                                       ! Diffuse Solar Day Schedule Name
  0.509,                                  ! ASHRAE Taub {dimensionless}
  1.813;                                  ! ASHRAE Taud {dimensionless}

OS:ComponentData,
  {021129fa-c62c-4e4c-a5db-24f3e1a9cf2c}, ! Handle
  Component Data 1,                       ! Name
  {2dbe8ba9-f4fa-4965-991b-d11c4b4e852d}, ! UUID
  {9509cc02-55f0-4111-bd49-d7b6f5799fdc}, ! Version UUID
  1366306384,                             ! Creation Timestamp
  1366306384,                             ! Version Timestamp
  {3d30e668-676a-4c04-ba22-3d3242227835}; ! Name of Object 1

