
OS:Version,
  {d40d5111-212b-44cb-a77f-9534558b1a77}, ! Handle
  0.9.3;                                  ! Version Identifier

OS:SizingPeriod:DesignDay,
  {9624e2b0-5a91-4af9-8c02-b8512205ac90}, ! Handle
  Dillingham  Amos Ann Clg 2% Condns DP=>MDB, ! Name
  14.7,                                   ! Maximum Dry-Bulb Temperature {C}
  7.2,                                    ! Daily Dry-Bulb Temperature Range {deltaC}
  11.2,                                   ! Humidity Indicating Conditions at Maximum Dry-Bulb {BasedOnField A3}
  100977,                                 ! Barometric Pressure {Pa}
  4.1,                                    ! Wind Speed {m/s}
  180,                                    ! Wind Direction {deg}
  0,                                      ! Sky Clearness
  0,                                      ! Rain Indicator
  0,                                      ! Snow Indicator
  21,                                     ! Day of Month
  7,                                      ! Month
  SummerDesignDay,                        ! Day Type
  0,                                      ! Daylight Saving Time Indicator
  Dewpoint,                               ! Humidity Indicating Type
  ,                                       ! Humidity Indicating Day Schedule Name
  DefaultMultipliers,                     ! Dry-Bulb Temperature Range Modifier Type
  ,                                       ! Dry-Bulb Temperature Range Modifier Schedule Name
  ASHRAETau,                              ! Solar Model Indicator
  ,                                       ! Beam Solar Day Schedule Name
  ,                                       ! Diffuse Solar Day Schedule Name
  0.382,                                  ! ASHRAE Taub {dimensionless}
  2.243;                                  ! ASHRAE Taud {dimensionless}

OS:ComponentData,
  {222148f7-5fd8-47f7-abee-522728f46e99}, ! Handle
  Component Data 1,                       ! Name
  {261c7125-0975-4db2-8c43-f7ebae8f648d}, ! UUID
  {060aa072-cbd2-43d8-9c07-d409fcc40407}, ! Version UUID
  1366305237,                             ! Creation Timestamp
  1366305237,                             ! Version Timestamp
  {9624e2b0-5a91-4af9-8c02-b8512205ac90}; ! Name of Object 1

