
OS:Version,
  {cd9d2105-7471-47a0-a364-24b124cf19bd}, ! Handle
  0.9.3;                                  ! Version Identifier

OS:SizingPeriod:DesignDay,
  {3c801572-3fe2-462d-885b-1db8cc85d288}, ! Handle
  Fosston Awos Ann Clg .4% Condns WB=>MDB, ! Name
  28,                                     ! Maximum Dry-Bulb Temperature {C}
  10.6,                                   ! Daily Dry-Bulb Temperature Range {deltaC}
  23.3,                                   ! Humidity Indicating Conditions at Maximum Dry-Bulb {BasedOnField A3}
  96750,                                  ! Barometric Pressure {Pa}
  5.4,                                    ! Wind Speed {m/s}
  160,                                    ! Wind Direction {deg}
  0,                                      ! Sky Clearness
  0,                                      ! Rain Indicator
  0,                                      ! Snow Indicator
  21,                                     ! Day of Month
  7,                                      ! Month
  SummerDesignDay,                        ! Day Type
  0,                                      ! Daylight Saving Time Indicator
  Wetbulb,                                ! Humidity Indicating Type
  ,                                       ! Humidity Indicating Day Schedule Name
  DefaultMultipliers,                     ! Dry-Bulb Temperature Range Modifier Type
  ,                                       ! Dry-Bulb Temperature Range Modifier Schedule Name
  ASHRAETau,                              ! Solar Model Indicator
  ,                                       ! Beam Solar Day Schedule Name
  ,                                       ! Diffuse Solar Day Schedule Name
  0.389,                                  ! ASHRAE Taub {dimensionless}
  2.278;                                  ! ASHRAE Taud {dimensionless}

OS:ComponentData,
  {a1b1bd43-a75c-4af9-b15b-ddcd1284539c}, ! Handle
  Component Data 1,                       ! Name
  {3516203c-b768-429e-b75d-4ea78694491b}, ! UUID
  {32284918-7514-49ea-9b5a-e9faadcd8f0f}, ! Version UUID
  1366308238,                             ! Creation Timestamp
  1366308238,                             ! Version Timestamp
  {3c801572-3fe2-462d-885b-1db8cc85d288}; ! Name of Object 1

