
OS:Version,
  {c14cf5a6-8636-4356-a4ef-6d8867366b19}, ! Handle
  0.9.3;                                  ! Version Identifier

OS:SizingPeriod:DesignDay,
  {a66c763b-fcdd-468b-ad9b-9322d650631a}, ! Handle
  Jefferson City Mem Ann Clg 1% Condns DB=>MWB, ! Name
  33,                                     ! Maximum Dry-Bulb Temperature {C}
  10.5,                                   ! Daily Dry-Bulb Temperature Range {deltaC}
  24.1,                                   ! Humidity Indicating Conditions at Maximum Dry-Bulb {BasedOnField A3}
  99335,                                  ! Barometric Pressure {Pa}
  3.7,                                    ! Wind Speed {m/s}
  220,                                    ! Wind Direction {deg}
  0,                                      ! Sky Clearness
  0,                                      ! Rain Indicator
  0,                                      ! Snow Indicator
  21,                                     ! Day of Month
  7,                                      ! Month
  SummerDesignDay,                        ! Day Type
  0,                                      ! Daylight Saving Time Indicator
  Wetbulb,                                ! Humidity Indicating Type
  ,                                       ! Humidity Indicating Day Schedule Name
  DefaultMultipliers,                     ! Dry-Bulb Temperature Range Modifier Type
  ,                                       ! Dry-Bulb Temperature Range Modifier Schedule Name
  ASHRAETau,                              ! Solar Model Indicator
  ,                                       ! Beam Solar Day Schedule Name
  ,                                       ! Diffuse Solar Day Schedule Name
  0.459,                                  ! ASHRAE Taub {dimensionless}
  2.071;                                  ! ASHRAE Taud {dimensionless}

OS:ComponentData,
  {d6d0eaef-1da0-4202-8c5c-ccd20ba7c4ff}, ! Handle
  Component Data 1,                       ! Name
  {0bc1ee5c-f44e-4cd8-b219-1e92309b40f5}, ! UUID
  {c5ef3747-d557-493e-bb8e-7666352d60a5}, ! Version UUID
  1366308502,                             ! Creation Timestamp
  1366308502,                             ! Version Timestamp
  {a66c763b-fcdd-468b-ad9b-9322d650631a}; ! Name of Object 1

