
OS:Version,
  {0b349566-2a2c-464f-ae8e-aec806265dfb}, ! Handle
  0.9.3;                                  ! Version Identifier

OS:SizingPeriod:DesignDay,
  {bb6641f3-5a0d-4f83-af78-0cce39b11ac6}, ! Handle
  Amarillo International Ap  Ca Ann Htg 99.6% Condns DB, ! Name
  -13.8,                                  ! Maximum Dry-Bulb Temperature {C}
  0,                                      ! Daily Dry-Bulb Temperature Range {deltaC}
  -13.8,                                  ! Humidity Indicating Conditions at Maximum Dry-Bulb {BasedOnField A3}
  89136,                                  ! Barometric Pressure {Pa}
  5.1,                                    ! Wind Speed {m/s}
  20,                                     ! Wind Direction {deg}
  0,                                      ! Sky Clearness
  0,                                      ! Rain Indicator
  0,                                      ! Snow Indicator
  21,                                     ! Day of Month
  12,                                     ! Month
  WinterDesignDay,                        ! Day Type
  0,                                      ! Daylight Saving Time Indicator
  Wetbulb,                                ! Humidity Indicating Type
  ,                                       ! Humidity Indicating Day Schedule Name
  DefaultMultipliers,                     ! Dry-Bulb Temperature Range Modifier Type
  ,                                       ! Dry-Bulb Temperature Range Modifier Schedule Name
  ASHRAEClearSky;                         ! Solar Model Indicator

OS:ComponentData,
  {f8b16387-e022-47b8-9355-9e5427aef5db}, ! Handle
  Component Data 1,                       ! Name
  {dd719fbe-344d-479c-915f-b548cce072a2}, ! UUID
  {5a05d4cd-1cdc-4cf7-89fd-98a5aadd402d}, ! Version UUID
  1366310573,                             ! Creation Timestamp
  1366310573,                             ! Version Timestamp
  {bb6641f3-5a0d-4f83-af78-0cce39b11ac6}; ! Name of Object 1

