
OS:Version,
  {b750acc3-9c11-4ca9-87bb-97fbf97b8cd8}, ! Handle
  0.9.3;                                  ! Version Identifier

OS:SizingPeriod:DesignDay,
  {30b774c1-6257-4a02-86fe-0aa98021a25a}, ! Handle
  Charlotte Ann Clg 2% Condns DB=>MWB,    ! Name
  31.9,                                   ! Maximum Dry-Bulb Temperature {C}
  10.1,                                   ! Daily Dry-Bulb Temperature Range {deltaC}
  23,                                     ! Humidity Indicating Conditions at Maximum Dry-Bulb {BasedOnField A3}
  98545,                                  ! Barometric Pressure {Pa}
  3.3,                                    ! Wind Speed {m/s}
  240,                                    ! Wind Direction {deg}
  0,                                      ! Sky Clearness
  0,                                      ! Rain Indicator
  0,                                      ! Snow Indicator
  21,                                     ! Day of Month
  7,                                      ! Month
  SummerDesignDay,                        ! Day Type
  0,                                      ! Daylight Saving Time Indicator
  Wetbulb,                                ! Humidity Indicating Type
  ,                                       ! Humidity Indicating Day Schedule Name
  DefaultMultipliers,                     ! Dry-Bulb Temperature Range Modifier Type
  ,                                       ! Dry-Bulb Temperature Range Modifier Schedule Name
  ASHRAETau,                              ! Solar Model Indicator
  ,                                       ! Beam Solar Day Schedule Name
  ,                                       ! Diffuse Solar Day Schedule Name
  0.557,                                  ! ASHRAE Taub {dimensionless}
  1.762;                                  ! ASHRAE Taud {dimensionless}

OS:ComponentData,
  {6ac12c96-af3c-4fe4-866c-459672900fce}, ! Handle
  Component Data 1,                       ! Name
  {169595b0-7f4b-4086-9d32-96b4897e8bb3}, ! UUID
  {b247ff3c-ffd2-450e-b934-36b50f7a6638}, ! Version UUID
  1366308884,                             ! Creation Timestamp
  1366308884,                             ! Version Timestamp
  {30b774c1-6257-4a02-86fe-0aa98021a25a}; ! Name of Object 1

