
OS:Version,
  {6acd5fcc-d4a5-44b1-ba68-0399fc6252db}, ! Handle
  0.9.3;                                  ! Version Identifier

OS:SizingPeriod:DesignDay,
  {34a5c54e-44f4-4fcc-b19e-2f91e7e9aa36}, ! Handle
  Barrow W Post W Rogers Arpt Ann Clg .4% Condns Enth=>MDB, ! Name
  13.8,                                   ! Maximum Dry-Bulb Temperature {C}
  6.3,                                    ! Daily Dry-Bulb Temperature Range {deltaC}
  33200,                                  ! Humidity Indicating Conditions at Maximum Dry-Bulb {BasedOnField A3}
  101205,                                 ! Barometric Pressure {Pa}
  5.2,                                    ! Wind Speed {m/s}
  180,                                    ! Wind Direction {deg}
  0,                                      ! Sky Clearness
  0,                                      ! Rain Indicator
  0,                                      ! Snow Indicator
  21,                                     ! Day of Month
  7,                                      ! Month
  SummerDesignDay,                        ! Day Type
  0,                                      ! Daylight Saving Time Indicator
  Enthalpy,                               ! Humidity Indicating Type
  ,                                       ! Humidity Indicating Day Schedule Name
  DefaultMultipliers,                     ! Dry-Bulb Temperature Range Modifier Type
  ,                                       ! Dry-Bulb Temperature Range Modifier Schedule Name
  ASHRAETau,                              ! Solar Model Indicator
  ,                                       ! Beam Solar Day Schedule Name
  ,                                       ! Diffuse Solar Day Schedule Name
  0.344,                                  ! ASHRAE Taub {dimensionless}
  2.25;                                   ! ASHRAE Taud {dimensionless}

OS:ComponentData,
  {d3b6241e-22f6-48a0-aedc-1bdb201976ac}, ! Handle
  Component Data 1,                       ! Name
  {52029277-ff92-406c-98e8-1d73e5e7f9bb}, ! UUID
  {f1edafaf-22d2-41df-b04e-12762ef94790}, ! Version UUID
  1366304738,                             ! Creation Timestamp
  1366304738,                             ! Version Timestamp
  {34a5c54e-44f4-4fcc-b19e-2f91e7e9aa36}; ! Name of Object 1

