
OS:Version,
  {925912b1-9fc4-4091-917d-35b44d5ede1b}, ! Handle
  0.9.3;                                  ! Version Identifier

OS:SizingPeriod:DesignDay,
  {d8a0d265-d5b4-4d0a-98d5-9249ecd1ca0e}, ! Handle
  La Crosse Ann Htg 99% Condns DB,        ! Name
  -21,                                    ! Maximum Dry-Bulb Temperature {C}
  0,                                      ! Daily Dry-Bulb Temperature Range {deltaC}
  -21,                                    ! Humidity Indicating Conditions at Maximum Dry-Bulb {BasedOnField A3}
  98922,                                  ! Barometric Pressure {Pa}
  3.4,                                    ! Wind Speed {m/s}
  330,                                    ! Wind Direction {deg}
  0,                                      ! Sky Clearness
  0,                                      ! Rain Indicator
  0,                                      ! Snow Indicator
  21,                                     ! Day of Month
  1,                                      ! Month
  WinterDesignDay,                        ! Day Type
  0,                                      ! Daylight Saving Time Indicator
  Wetbulb,                                ! Humidity Indicating Type
  ,                                       ! Humidity Indicating Day Schedule Name
  DefaultMultipliers,                     ! Dry-Bulb Temperature Range Modifier Type
  ,                                       ! Dry-Bulb Temperature Range Modifier Schedule Name
  ASHRAEClearSky;                         ! Solar Model Indicator

OS:ComponentData,
  {7642941f-0090-4d32-9ce4-7e29fba27f80}, ! Handle
  Component Data 1,                       ! Name
  {2525fb28-fb25-4bdc-8b9a-0c0193821676}, ! UUID
  {8d7079e1-8611-4b77-bc4c-be4a52a76842}, ! Version UUID
  1366311507,                             ! Creation Timestamp
  1366311507,                             ! Version Timestamp
  {d8a0d265-d5b4-4d0a-98d5-9249ecd1ca0e}; ! Name of Object 1

