
OS:Version,
  {46253bea-5e8c-473b-962d-b9ee17db4fc4}, ! Handle
  0.9.3;                                  ! Version Identifier

OS:SizingPeriod:DesignDay,
  {10d5e921-3b9c-4e51-9c83-81d81de0d83a}, ! Handle
  Jefferson City Mem Ann Clg .4% Condns Enth=>MDB, ! Name
  32,                                     ! Maximum Dry-Bulb Temperature {C}
  10.5,                                   ! Daily Dry-Bulb Temperature Range {deltaC}
  82700,                                  ! Humidity Indicating Conditions at Maximum Dry-Bulb {BasedOnField A3}
  99335,                                  ! Barometric Pressure {Pa}
  3.7,                                    ! Wind Speed {m/s}
  220,                                    ! Wind Direction {deg}
  0,                                      ! Sky Clearness
  0,                                      ! Rain Indicator
  0,                                      ! Snow Indicator
  21,                                     ! Day of Month
  7,                                      ! Month
  SummerDesignDay,                        ! Day Type
  0,                                      ! Daylight Saving Time Indicator
  Enthalpy,                               ! Humidity Indicating Type
  ,                                       ! Humidity Indicating Day Schedule Name
  DefaultMultipliers,                     ! Dry-Bulb Temperature Range Modifier Type
  ,                                       ! Dry-Bulb Temperature Range Modifier Schedule Name
  ASHRAETau,                              ! Solar Model Indicator
  ,                                       ! Beam Solar Day Schedule Name
  ,                                       ! Diffuse Solar Day Schedule Name
  0.459,                                  ! ASHRAE Taub {dimensionless}
  2.071;                                  ! ASHRAE Taud {dimensionless}

