
OS:Version,
  {1e2bfbda-30f0-4a37-8332-f1476e758cdb}, ! Handle
  0.9.3;                                  ! Version Identifier

OS:SizingPeriod:DesignDay,
  {59761796-ab60-4921-b3c9-663fa84c4cdc}, ! Handle
  Chan Gurney Muni Ann Hum_n 99.6% Condns DP=>MCDB, ! Name
  -21.3,                                  ! Maximum Dry-Bulb Temperature {C}
  0,                                      ! Daily Dry-Bulb Temperature Range {deltaC}
  -27.9,                                  ! Humidity Indicating Conditions at Maximum Dry-Bulb {BasedOnField A3}
  96519,                                  ! Barometric Pressure {Pa}
  4.5,                                    ! Wind Speed {m/s}
  310,                                    ! Wind Direction {deg}
  0,                                      ! Sky Clearness
  0,                                      ! Rain Indicator
  0,                                      ! Snow Indicator
  21,                                     ! Day of Month
  1,                                      ! Month
  WinterDesignDay,                        ! Day Type
  0,                                      ! Daylight Saving Time Indicator
  Dewpoint,                               ! Humidity Indicating Type
  ,                                       ! Humidity Indicating Day Schedule Name
  DefaultMultipliers,                     ! Dry-Bulb Temperature Range Modifier Type
  ,                                       ! Dry-Bulb Temperature Range Modifier Schedule Name
  ASHRAEClearSky;                         ! Solar Model Indicator

OS:ComponentData,
  {246b2d73-fa6a-4fa5-8955-2808ab916b91}, ! Handle
  Component Data 1,                       ! Name
  {021d3a58-f4f9-4567-9d1a-ce2a987b676b}, ! UUID
  {da67f2e6-acc2-465e-860d-8a23b5367fa1}, ! Version UUID
  1366310471,                             ! Creation Timestamp
  1366310471,                             ! Version Timestamp
  {59761796-ab60-4921-b3c9-663fa84c4cdc}; ! Name of Object 1

