
OS:Version,
  {6162211c-e6a4-413e-8db2-b30764260a07}, ! Handle
  0.9.3;                                  ! Version Identifier

OS:SizingPeriod:DesignDay,
  {278fef46-5ee1-4c70-bac9-c29bf9dbe850}, ! Handle
  Eau Claire County Ap Ann Clg .4% Condns WB=>MDB, ! Name
  30.1,                                   ! Maximum Dry-Bulb Temperature {C}
  11.5,                                   ! Daily Dry-Bulb Temperature Range {deltaC}
  24.5,                                   ! Humidity Indicating Conditions at Maximum Dry-Bulb {BasedOnField A3}
  98112,                                  ! Barometric Pressure {Pa}
  5.2,                                    ! Wind Speed {m/s}
  190,                                    ! Wind Direction {deg}
  0,                                      ! Sky Clearness
  0,                                      ! Rain Indicator
  0,                                      ! Snow Indicator
  21,                                     ! Day of Month
  7,                                      ! Month
  SummerDesignDay,                        ! Day Type
  0,                                      ! Daylight Saving Time Indicator
  Wetbulb,                                ! Humidity Indicating Type
  ,                                       ! Humidity Indicating Day Schedule Name
  DefaultMultipliers,                     ! Dry-Bulb Temperature Range Modifier Type
  ,                                       ! Dry-Bulb Temperature Range Modifier Schedule Name
  ASHRAETau,                              ! Solar Model Indicator
  ,                                       ! Beam Solar Day Schedule Name
  ,                                       ! Diffuse Solar Day Schedule Name
  0.412,                                  ! ASHRAE Taub {dimensionless}
  2.189;                                  ! ASHRAE Taud {dimensionless}

OS:ComponentData,
  {0cd53396-ffcb-48c2-82e9-d1fb4824961f}, ! Handle
  Component Data 1,                       ! Name
  {09fa79a0-aaf2-4650-9dae-d70f2b90f5ab}, ! UUID
  {95b11ede-fec5-4553-9226-6b4abc017f5d}, ! Version UUID
  1366311474,                             ! Creation Timestamp
  1366311474,                             ! Version Timestamp
  {278fef46-5ee1-4c70-bac9-c29bf9dbe850}; ! Name of Object 1

