
OS:Version,
  {1122449a-5512-4cb8-bcb6-b44104391b56}, ! Handle
  0.9.3;                                  ! Version Identifier

OS:SizingPeriod:DesignDay,
  {681f1dd5-67ff-4718-970d-69941731881f}, ! Handle
  Hilo International Ap Ann Clg .4% Condns DP=>MDB, ! Name
  26.2,                                   ! Maximum Dry-Bulb Temperature {C}
  7,                                      ! Daily Dry-Bulb Temperature Range {deltaC}
  23.9,                                   ! Humidity Indicating Conditions at Maximum Dry-Bulb {BasedOnField A3}
  101217,                                 ! Barometric Pressure {Pa}
  4.8,                                    ! Wind Speed {m/s}
  90,                                     ! Wind Direction {deg}
  0,                                      ! Sky Clearness
  0,                                      ! Rain Indicator
  0,                                      ! Snow Indicator
  21,                                     ! Day of Month
  8,                                      ! Month
  SummerDesignDay,                        ! Day Type
  0,                                      ! Daylight Saving Time Indicator
  Dewpoint,                               ! Humidity Indicating Type
  ,                                       ! Humidity Indicating Day Schedule Name
  DefaultMultipliers,                     ! Dry-Bulb Temperature Range Modifier Type
  ,                                       ! Dry-Bulb Temperature Range Modifier Schedule Name
  ASHRAETau,                              ! Solar Model Indicator
  ,                                       ! Beam Solar Day Schedule Name
  ,                                       ! Diffuse Solar Day Schedule Name
  0.411,                                  ! ASHRAE Taub {dimensionless}
  2.427;                                  ! ASHRAE Taud {dimensionless}

OS:ComponentData,
  {a53388ab-b6cd-4d88-bb31-de376e51c383}, ! Handle
  Component Data 1,                       ! Name
  {315c811f-cdb1-4f3b-a9f7-6c1e4a0c844d}, ! UUID
  {5cc6d525-2e5a-4396-80a0-a3d553231251}, ! Version UUID
  1366307084,                             ! Creation Timestamp
  1366307084,                             ! Version Timestamp
  {681f1dd5-67ff-4718-970d-69941731881f}; ! Name of Object 1

