
OS:Version,
  {9be4004a-08cd-417f-84e0-7959a714d215}, ! Handle
  0.9.3;                                  ! Version Identifier

OS:SizingPeriod:DesignDay,
  {3ed8a7d1-1a9b-44e7-85af-ad9703edf4ef}, ! Handle
  Greer GreenvL Spartanbrg Ap Ann Clg 1% Condns DB=>MWB, ! Name
  33,                                     ! Maximum Dry-Bulb Temperature {C}
  10.6,                                   ! Daily Dry-Bulb Temperature Range {deltaC}
  23.3,                                   ! Humidity Indicating Conditions at Maximum Dry-Bulb {BasedOnField A3}
  97866,                                  ! Barometric Pressure {Pa}
  3.6,                                    ! Wind Speed {m/s}
  230,                                    ! Wind Direction {deg}
  0,                                      ! Sky Clearness
  0,                                      ! Rain Indicator
  0,                                      ! Snow Indicator
  21,                                     ! Day of Month
  7,                                      ! Month
  SummerDesignDay,                        ! Day Type
  0,                                      ! Daylight Saving Time Indicator
  Wetbulb,                                ! Humidity Indicating Type
  ,                                       ! Humidity Indicating Day Schedule Name
  DefaultMultipliers,                     ! Dry-Bulb Temperature Range Modifier Type
  ,                                       ! Dry-Bulb Temperature Range Modifier Schedule Name
  ASHRAETau,                              ! Solar Model Indicator
  ,                                       ! Beam Solar Day Schedule Name
  ,                                       ! Diffuse Solar Day Schedule Name
  0.545,                                  ! ASHRAE Taub {dimensionless}
  1.796;                                  ! ASHRAE Taud {dimensionless}

OS:ComponentData,
  {f1eba31d-3527-42f2-829c-3aad4b7d19dc}, ! Handle
  Component Data 1,                       ! Name
  {8d7e9bf9-5639-482d-bc62-a849bd131f0a}, ! UUID
  {8d93a03c-8153-40d9-997d-3db8a2a2c921}, ! Version UUID
  1366310368,                             ! Creation Timestamp
  1366310368,                             ! Version Timestamp
  {3ed8a7d1-1a9b-44e7-85af-ad9703edf4ef}; ! Name of Object 1

