
OS:Version,
  {81fcbfba-fa79-4349-b590-b36b05b2ff47}, ! Handle
  0.9.3;                                  ! Version Identifier

OS:SizingPeriod:DesignDay,
  {75dca68c-8d5f-48c7-bda2-75f40f3cdc07}, ! Handle
  Henderson City Ann Hum_n 99.6% Condns DP=>MCDB, ! Name
  -12.2,                                  ! Maximum Dry-Bulb Temperature {C}
  0,                                      ! Daily Dry-Bulb Temperature Range {deltaC}
  -19,                                    ! Humidity Indicating Conditions at Maximum Dry-Bulb {BasedOnField A3}
  99927,                                  ! Barometric Pressure {Pa}
  2.7,                                    ! Wind Speed {m/s}
  310,                                    ! Wind Direction {deg}
  0,                                      ! Sky Clearness
  0,                                      ! Rain Indicator
  0,                                      ! Snow Indicator
  21,                                     ! Day of Month
  1,                                      ! Month
  WinterDesignDay,                        ! Day Type
  0,                                      ! Daylight Saving Time Indicator
  Dewpoint,                               ! Humidity Indicating Type
  ,                                       ! Humidity Indicating Day Schedule Name
  DefaultMultipliers,                     ! Dry-Bulb Temperature Range Modifier Type
  ,                                       ! Dry-Bulb Temperature Range Modifier Schedule Name
  ASHRAEClearSky;                         ! Solar Model Indicator

OS:ComponentData,
  {7cead0fe-1d44-4d3c-8a62-2970c6414b0c}, ! Handle
  Component Data 1,                       ! Name
  {90f2cdc1-ee5c-4498-8ea8-955277668f06}, ! UUID
  {de8e40e3-98bc-4a21-902e-b7c329ee21ab}, ! Version UUID
  1366307637,                             ! Creation Timestamp
  1366307637,                             ! Version Timestamp
  {75dca68c-8d5f-48c7-bda2-75f40f3cdc07}; ! Name of Object 1

