
OS:Version,
  {1d406b7d-d84a-48a3-aa50-8c86aded0cf6}, ! Handle
  0.9.3;                                  ! Version Identifier

OS:SizingPeriod:DesignDay,
  {4831bd99-a131-4149-996c-622a3ad67f0e}, ! Handle
  Goodland Ann Hum_n 99% Condns DP=>MCDB, ! Name
  -13,                                    ! Maximum Dry-Bulb Temperature {C}
  0,                                      ! Daily Dry-Bulb Temperature Range {deltaC}
  -19.1,                                  ! Humidity Indicating Conditions at Maximum Dry-Bulb {BasedOnField A3}
  88531,                                  ! Barometric Pressure {Pa}
  5,                                      ! Wind Speed {m/s}
  270,                                    ! Wind Direction {deg}
  0,                                      ! Sky Clearness
  0,                                      ! Rain Indicator
  0,                                      ! Snow Indicator
  21,                                     ! Day of Month
  1,                                      ! Month
  WinterDesignDay,                        ! Day Type
  0,                                      ! Daylight Saving Time Indicator
  Dewpoint,                               ! Humidity Indicating Type
  ,                                       ! Humidity Indicating Day Schedule Name
  DefaultMultipliers,                     ! Dry-Bulb Temperature Range Modifier Type
  ,                                       ! Dry-Bulb Temperature Range Modifier Schedule Name
  ASHRAEClearSky;                         ! Solar Model Indicator

OS:ComponentData,
  {53d6c560-ed1e-40a4-8ba2-e487e7813103}, ! Handle
  Component Data 1,                       ! Name
  {8c86a9c9-376d-4c93-b0d8-660cae142bae}, ! UUID
  {02e4fbef-405e-4b88-b4d0-65bd67e458ec}, ! Version UUID
  1366307530,                             ! Creation Timestamp
  1366307530,                             ! Version Timestamp
  {4831bd99-a131-4149-996c-622a3ad67f0e}; ! Name of Object 1

