
OS:Version,
  {2d5c6435-df04-4c6a-8d12-e928c28eae74}, ! Handle
  0.9.3;                                  ! Version Identifier

OS:SizingPeriod:DesignDay,
  {ee9bdebb-3419-47ea-9fea-d1287dcb103d}, ! Handle
  Lamar Municipal Ann Hum_n 99% Condns DP=>MCDB, ! Name
  -8.2,                                   ! Maximum Dry-Bulb Temperature {C}
  0,                                      ! Daily Dry-Bulb Temperature Range {deltaC}
  -17.7,                                  ! Humidity Indicating Conditions at Maximum Dry-Bulb {BasedOnField A3}
  88477,                                  ! Barometric Pressure {Pa}
  3.1,                                    ! Wind Speed {m/s}
  220,                                    ! Wind Direction {deg}
  0,                                      ! Sky Clearness
  0,                                      ! Rain Indicator
  0,                                      ! Snow Indicator
  21,                                     ! Day of Month
  12,                                     ! Month
  WinterDesignDay,                        ! Day Type
  0,                                      ! Daylight Saving Time Indicator
  Dewpoint,                               ! Humidity Indicating Type
  ,                                       ! Humidity Indicating Day Schedule Name
  DefaultMultipliers,                     ! Dry-Bulb Temperature Range Modifier Type
  ,                                       ! Dry-Bulb Temperature Range Modifier Schedule Name
  ASHRAEClearSky;                         ! Solar Model Indicator

OS:ComponentData,
  {7d6872f3-852b-4270-bf23-2bc895709332}, ! Handle
  Component Data 1,                       ! Name
  {03776852-0742-492b-a69e-2e7e22174619}, ! UUID
  {50ce571b-4db0-4a06-ab56-4e73b6122c5c}, ! Version UUID
  1366306716,                             ! Creation Timestamp
  1366306716,                             ! Version Timestamp
  {ee9bdebb-3419-47ea-9fea-d1287dcb103d}; ! Name of Object 1

