
OS:Version,
  {eb8eacc1-44f8-446c-a46b-fff736eb4349}, ! Handle
  0.9.3;                                  ! Version Identifier

OS:SizingPeriod:DesignDay,
  {04844e7b-2cce-49b4-90f9-da8d0b6aa5e1}, ! Handle
  CHARLESTON Ann Htg Wind 99% Condns WS=>MCDB, ! Name
  3.5,                                    ! Maximum Dry-Bulb Temperature {C}
  0,                                      ! Daily Dry-Bulb Temperature Range {deltaC}
  3.5,                                    ! Humidity Indicating Conditions at Maximum Dry-Bulb {BasedOnField A3}
  97889,                                  ! Barometric Pressure {Pa}
  8.4,                                    ! Wind Speed {m/s}
  240,                                    ! Wind Direction {deg}
  0,                                      ! Sky Clearness
  0,                                      ! Rain Indicator
  0,                                      ! Snow Indicator
  21,                                     ! Day of Month
  1,                                      ! Month
  WinterDesignDay,                        ! Day Type
  0,                                      ! Daylight Saving Time Indicator
  Wetbulb,                                ! Humidity Indicating Type
  ,                                       ! Humidity Indicating Day Schedule Name
  DefaultMultipliers,                     ! Dry-Bulb Temperature Range Modifier Type
  ,                                       ! Dry-Bulb Temperature Range Modifier Schedule Name
  ASHRAEClearSky;                         ! Solar Model Indicator

OS:ComponentData,
  {ef409397-ea01-411b-a409-7d952a55dc9b}, ! Handle
  Component Data 1,                       ! Name
  {22b976b2-cc8b-4b01-a5ba-982b1dddc885}, ! UUID
  {9e38eec0-9292-44c4-9377-e9f0a546b2f1}, ! Version UUID
  1366311629,                             ! Creation Timestamp
  1366311629,                             ! Version Timestamp
  {04844e7b-2cce-49b4-90f9-da8d0b6aa5e1}; ! Name of Object 1

