
OS:Version,
  {057af880-170e-4c8b-82bd-d517e4d0682a}, ! Handle
  0.9.3;                                  ! Version Identifier

OS:SizingPeriod:DesignDay,
  {0c099435-f138-4b3c-b6c9-862ff68a87f3}, ! Handle
  Glendive Awos Ann Clg 1% Condns DB=>MWB, ! Name
  32.7,                                   ! Maximum Dry-Bulb Temperature {C}
  14.4,                                   ! Daily Dry-Bulb Temperature Range {deltaC}
  18,                                     ! Humidity Indicating Conditions at Maximum Dry-Bulb {BasedOnField A3}
  92645,                                  ! Barometric Pressure {Pa}
  4.9,                                    ! Wind Speed {m/s}
  150,                                    ! Wind Direction {deg}
  0,                                      ! Sky Clearness
  0,                                      ! Rain Indicator
  0,                                      ! Snow Indicator
  21,                                     ! Day of Month
  7,                                      ! Month
  SummerDesignDay,                        ! Day Type
  0,                                      ! Daylight Saving Time Indicator
  Wetbulb,                                ! Humidity Indicating Type
  ,                                       ! Humidity Indicating Day Schedule Name
  DefaultMultipliers,                     ! Dry-Bulb Temperature Range Modifier Type
  ,                                       ! Dry-Bulb Temperature Range Modifier Schedule Name
  ASHRAETau,                              ! Solar Model Indicator
  ,                                       ! Beam Solar Day Schedule Name
  ,                                       ! Diffuse Solar Day Schedule Name
  0.397,                                  ! ASHRAE Taub {dimensionless}
  2.163;                                  ! ASHRAE Taud {dimensionless}

OS:ComponentData,
  {e17e0599-8e72-4c76-bc1f-9466ff36a8a8}, ! Handle
  Component Data 1,                       ! Name
  {9363946f-6b29-4410-89d3-de580d1dcc0f}, ! UUID
  {0ff4e067-6f84-4458-9be0-a1f2a15bef6d}, ! Version UUID
  1366308767,                             ! Creation Timestamp
  1366308767,                             ! Version Timestamp
  {0c099435-f138-4b3c-b6c9-862ff68a87f3}; ! Name of Object 1

