
OS:Version,
  {6b178f2c-8cc6-4841-a86e-cb6969eb5885}, ! Handle
  0.9.3;                                  ! Version Identifier

OS:SizingPeriod:DesignDay,
  {8cc0c7cc-8ea9-418c-80a7-7f4209333db5}, ! Handle
  Burbank Glendale Passadena Ap Ann Clg 1% Condns DB=>MWB, ! Name
  34.8,                                   ! Maximum Dry-Bulb Temperature {C}
  13.2,                                   ! Daily Dry-Bulb Temperature Range {deltaC}
  20.1,                                   ! Humidity Indicating Conditions at Maximum Dry-Bulb {BasedOnField A3}
  98639,                                  ! Barometric Pressure {Pa}
  3.9,                                    ! Wind Speed {m/s}
  170,                                    ! Wind Direction {deg}
  0,                                      ! Sky Clearness
  0,                                      ! Rain Indicator
  0,                                      ! Snow Indicator
  21,                                     ! Day of Month
  8,                                      ! Month
  SummerDesignDay,                        ! Day Type
  0,                                      ! Daylight Saving Time Indicator
  Wetbulb,                                ! Humidity Indicating Type
  ,                                       ! Humidity Indicating Day Schedule Name
  DefaultMultipliers,                     ! Dry-Bulb Temperature Range Modifier Type
  ,                                       ! Dry-Bulb Temperature Range Modifier Schedule Name
  ASHRAETau,                              ! Solar Model Indicator
  ,                                       ! Beam Solar Day Schedule Name
  ,                                       ! Diffuse Solar Day Schedule Name
  0.436,                                  ! ASHRAE Taub {dimensionless}
  2.106;                                  ! ASHRAE Taud {dimensionless}

OS:ComponentData,
  {e4528bf2-2c8a-4aa4-92a9-b275a7e74a38}, ! Handle
  Component Data 1,                       ! Name
  {e4554fe2-da4f-4cd4-a2eb-bff7c9e9f032}, ! UUID
  {7562a705-c9c8-4ce2-b33f-6921b27a90b5}, ! Version UUID
  1366306392,                             ! Creation Timestamp
  1366306392,                             ! Version Timestamp
  {8cc0c7cc-8ea9-418c-80a7-7f4209333db5}; ! Name of Object 1

