
OS:Version,
  {db166b55-35b9-4ddb-ad1d-53cdc268edb8}, ! Handle
  0.9.3;                                  ! Version Identifier

OS:SizingPeriod:DesignDay,
  {01369183-f56f-4d17-b8fd-2fa4c2ff70c6}, ! Handle
  Cape Girardeau Municipal Ap Ann Clg 1% Condns WB=>MDB, ! Name
  31.7,                                   ! Maximum Dry-Bulb Temperature {C}
  10.7,                                   ! Daily Dry-Bulb Temperature Range {deltaC}
  26.1,                                   ! Humidity Indicating Conditions at Maximum Dry-Bulb {BasedOnField A3}
  100094,                                 ! Barometric Pressure {Pa}
  3.9,                                    ! Wind Speed {m/s}
  210,                                    ! Wind Direction {deg}
  0,                                      ! Sky Clearness
  0,                                      ! Rain Indicator
  0,                                      ! Snow Indicator
  21,                                     ! Day of Month
  7,                                      ! Month
  SummerDesignDay,                        ! Day Type
  0,                                      ! Daylight Saving Time Indicator
  Wetbulb,                                ! Humidity Indicating Type
  ,                                       ! Humidity Indicating Day Schedule Name
  DefaultMultipliers,                     ! Dry-Bulb Temperature Range Modifier Type
  ,                                       ! Dry-Bulb Temperature Range Modifier Schedule Name
  ASHRAETau,                              ! Solar Model Indicator
  ,                                       ! Beam Solar Day Schedule Name
  ,                                       ! Diffuse Solar Day Schedule Name
  0.491,                                  ! ASHRAE Taub {dimensionless}
  1.953;                                  ! ASHRAE Taud {dimensionless}

OS:ComponentData,
  {e821c5df-aa93-4939-a952-2ad5dfbd4fab}, ! Handle
  Component Data 1,                       ! Name
  {284180f3-db28-4236-9ea4-00bb0247b1c6}, ! UUID
  {a5c35aba-b4d0-4d94-9c4b-3c8ae670ef70}, ! Version UUID
  1366308475,                             ! Creation Timestamp
  1366308475,                             ! Version Timestamp
  {01369183-f56f-4d17-b8fd-2fa4c2ff70c6}; ! Name of Object 1

