
OS:Version,
  {61351b35-377d-49f0-9fc0-abf221f6aaad}, ! Handle
  0.9.3;                                  ! Version Identifier

OS:SizingPeriod:DesignDay,
  {3accdd53-d09d-49d1-b39f-ba6d8318cfbd}, ! Handle
  Jacksonville Nas Ann Clg .4% Condns DP=>MDB, ! Name
  28.8,                                   ! Maximum Dry-Bulb Temperature {C}
  9.4,                                    ! Daily Dry-Bulb Temperature Range {deltaC}
  26,                                     ! Humidity Indicating Conditions at Maximum Dry-Bulb {BasedOnField A3}
  101217,                                 ! Barometric Pressure {Pa}
  3.2,                                    ! Wind Speed {m/s}
  260,                                    ! Wind Direction {deg}
  0,                                      ! Sky Clearness
  0,                                      ! Rain Indicator
  0,                                      ! Snow Indicator
  21,                                     ! Day of Month
  7,                                      ! Month
  SummerDesignDay,                        ! Day Type
  0,                                      ! Daylight Saving Time Indicator
  Dewpoint,                               ! Humidity Indicating Type
  ,                                       ! Humidity Indicating Day Schedule Name
  DefaultMultipliers,                     ! Dry-Bulb Temperature Range Modifier Type
  ,                                       ! Dry-Bulb Temperature Range Modifier Schedule Name
  ASHRAETau,                              ! Solar Model Indicator
  ,                                       ! Beam Solar Day Schedule Name
  ,                                       ! Diffuse Solar Day Schedule Name
  0.538,                                  ! ASHRAE Taub {dimensionless}
  1.868;                                  ! ASHRAE Taud {dimensionless}

OS:ComponentData,
  {2f7d0fd5-e7c1-43f6-a175-f859d2023b5f}, ! Handle
  Component Data 1,                       ! Name
  {2452cb39-f8ab-464f-8b0c-375f380bfe80}, ! UUID
  {2db34013-58cf-435c-8c09-b844eaa95a67}, ! Version UUID
  1366306827,                             ! Creation Timestamp
  1366306827,                             ! Version Timestamp
  {3accdd53-d09d-49d1-b39f-ba6d8318cfbd}; ! Name of Object 1

