
OS:Version,
  {9d5059a8-7428-49db-ad85-661d0fe1414b}, ! Handle
  0.9.3;                                  ! Version Identifier

OS:SizingPeriod:DesignDay,
  {ea46d7da-18eb-4a8c-907c-610b4c878bba}, ! Handle
  Brainerd Wieland Ann Htg Wind 99% Condns WS=>MCDB, ! Name
  -5.5,                                   ! Maximum Dry-Bulb Temperature {C}
  0,                                      ! Daily Dry-Bulb Temperature Range {deltaC}
  -5.5,                                   ! Humidity Indicating Conditions at Maximum Dry-Bulb {BasedOnField A3}
  96912,                                  ! Barometric Pressure {Pa}
  8.3,                                    ! Wind Speed {m/s}
  240,                                    ! Wind Direction {deg}
  0,                                      ! Sky Clearness
  0,                                      ! Rain Indicator
  0,                                      ! Snow Indicator
  21,                                     ! Day of Month
  1,                                      ! Month
  WinterDesignDay,                        ! Day Type
  0,                                      ! Daylight Saving Time Indicator
  Wetbulb,                                ! Humidity Indicating Type
  ,                                       ! Humidity Indicating Day Schedule Name
  DefaultMultipliers,                     ! Dry-Bulb Temperature Range Modifier Type
  ,                                       ! Dry-Bulb Temperature Range Modifier Schedule Name
  ASHRAEClearSky;                         ! Solar Model Indicator

OS:ComponentData,
  {13011e63-df05-4198-a6a2-23bc15aab716}, ! Handle
  Component Data 1,                       ! Name
  {ffd1316f-52ed-4b2e-a5ed-17f8fc2f764a}, ! UUID
  {8af2c1d8-8901-41ed-9ca7-a54b4dec3992}, ! Version UUID
  1366308170,                             ! Creation Timestamp
  1366308170,                             ! Version Timestamp
  {ea46d7da-18eb-4a8c-907c-610b4c878bba}; ! Name of Object 1

