
OS:Version,
  {f3af266a-f306-42e1-9405-80ee9df1ef55}, ! Handle
  0.9.3;                                  ! Version Identifier

OS:SizingPeriod:DesignDay,
  {d8bbcdcd-0115-4629-9bde-1b4f5c819f2b}, ! Handle
  Alpena Ann Htg 99% Condns DB,           ! Name
  -17.8,                                  ! Maximum Dry-Bulb Temperature {C}
  0,                                      ! Daily Dry-Bulb Temperature Range {deltaC}
  -17.8,                                  ! Humidity Indicating Conditions at Maximum Dry-Bulb {BasedOnField A3}
  98816,                                  ! Barometric Pressure {Pa}
  2,                                      ! Wind Speed {m/s}
  260,                                    ! Wind Direction {deg}
  0,                                      ! Sky Clearness
  0,                                      ! Rain Indicator
  0,                                      ! Snow Indicator
  21,                                     ! Day of Month
  1,                                      ! Month
  WinterDesignDay,                        ! Day Type
  0,                                      ! Daylight Saving Time Indicator
  Wetbulb,                                ! Humidity Indicating Type
  ,                                       ! Humidity Indicating Day Schedule Name
  DefaultMultipliers,                     ! Dry-Bulb Temperature Range Modifier Type
  ,                                       ! Dry-Bulb Temperature Range Modifier Schedule Name
  ASHRAEClearSky;                         ! Solar Model Indicator

OS:ComponentData,
  {c0bda76a-d09d-40d9-9321-0283b1186c16}, ! Handle
  Component Data 1,                       ! Name
  {ace8cc48-b3df-497d-b3ba-f30d388a9707}, ! UUID
  {3571c39b-b569-49cc-9eff-18455441b836}, ! Version UUID
  1366307941,                             ! Creation Timestamp
  1366307941,                             ! Version Timestamp
  {d8bbcdcd-0115-4629-9bde-1b4f5c819f2b}; ! Name of Object 1

