
OS:Version,
  {c1b48125-8f34-48dc-85cb-2661e8688c52}, ! Handle
  0.9.3;                                  ! Version Identifier

OS:SizingPeriod:DesignDay,
  {0e4d0835-79fd-4b45-847d-972fad05c95f}, ! Handle
  Columbia Regional Airport Ann Htg 99% Condns DB, ! Name
  -13.8,                                  ! Maximum Dry-Bulb Temperature {C}
  0,                                      ! Daily Dry-Bulb Temperature Range {deltaC}
  -13.8,                                  ! Humidity Indicating Conditions at Maximum Dry-Bulb {BasedOnField A3}
  98100,                                  ! Barometric Pressure {Pa}
  4.4,                                    ! Wind Speed {m/s}
  280,                                    ! Wind Direction {deg}
  0,                                      ! Sky Clearness
  0,                                      ! Rain Indicator
  0,                                      ! Snow Indicator
  21,                                     ! Day of Month
  1,                                      ! Month
  WinterDesignDay,                        ! Day Type
  0,                                      ! Daylight Saving Time Indicator
  Wetbulb,                                ! Humidity Indicating Type
  ,                                       ! Humidity Indicating Day Schedule Name
  DefaultMultipliers,                     ! Dry-Bulb Temperature Range Modifier Type
  ,                                       ! Dry-Bulb Temperature Range Modifier Schedule Name
  ASHRAEClearSky;                         ! Solar Model Indicator

OS:ComponentData,
  {e5dbdcc7-03f2-4ff3-8111-490b144c99bf}, ! Handle
  Component Data 1,                       ! Name
  {e0309c5c-cc2e-4e06-b598-9eb88670824e}, ! UUID
  {049fa382-6f4d-4cc2-aa4f-5a09171b82fa}, ! Version UUID
  1366308491,                             ! Creation Timestamp
  1366308491,                             ! Version Timestamp
  {0e4d0835-79fd-4b45-847d-972fad05c95f}; ! Name of Object 1

