
OS:Version,
  {b9fdfc5a-e64a-4391-a8c1-924ada79ea1c}, ! Handle
  0.9.3;                                  ! Version Identifier

OS:SizingPeriod:DesignDay,
  {68ed079e-db24-41a4-a8d3-a5a6facd6c37}, ! Handle
  Great Falls Intl Arpt Ann Htg 99% Condns DB, ! Name
  -24,                                    ! Maximum Dry-Bulb Temperature {C}
  0,                                      ! Daily Dry-Bulb Temperature Range {deltaC}
  -24,                                    ! Humidity Indicating Conditions at Maximum Dry-Bulb {BasedOnField A3}
  88606,                                  ! Barometric Pressure {Pa}
  2.7,                                    ! Wind Speed {m/s}
  230,                                    ! Wind Direction {deg}
  0,                                      ! Sky Clearness
  0,                                      ! Rain Indicator
  0,                                      ! Snow Indicator
  21,                                     ! Day of Month
  1,                                      ! Month
  WinterDesignDay,                        ! Day Type
  0,                                      ! Daylight Saving Time Indicator
  Wetbulb,                                ! Humidity Indicating Type
  ,                                       ! Humidity Indicating Day Schedule Name
  DefaultMultipliers,                     ! Dry-Bulb Temperature Range Modifier Type
  ,                                       ! Dry-Bulb Temperature Range Modifier Schedule Name
  ASHRAEClearSky;                         ! Solar Model Indicator

OS:ComponentData,
  {9637116d-fd12-4013-affb-18db399e0348}, ! Handle
  Component Data 1,                       ! Name
  {d31a8b01-ba2c-4206-9951-98a415d69647}, ! UUID
  {ce19b24b-0231-459f-ab60-f8b8e5cd863f}, ! Version UUID
  1366308779,                             ! Creation Timestamp
  1366308779,                             ! Version Timestamp
  {68ed079e-db24-41a4-a8d3-a5a6facd6c37}; ! Name of Object 1

