
OS:Version,
  {73aab091-13bb-4ad9-a89b-2c9f9dca5369}, ! Handle
  0.9.3;                                  ! Version Identifier

OS:SizingPeriod:DesignDay,
  {9fee6da0-82d5-463f-bbb2-0eaa10d25df9}, ! Handle
  International Falls Intl Ap Ann Clg .4% Condns DB=>MWB, ! Name
  30.1,                                   ! Maximum Dry-Bulb Temperature {C}
  12.4,                                   ! Daily Dry-Bulb Temperature Range {deltaC}
  21.1,                                   ! Humidity Indicating Conditions at Maximum Dry-Bulb {BasedOnField A3}
  97086,                                  ! Barometric Pressure {Pa}
  4.7,                                    ! Wind Speed {m/s}
  200,                                    ! Wind Direction {deg}
  0,                                      ! Sky Clearness
  0,                                      ! Rain Indicator
  0,                                      ! Snow Indicator
  21,                                     ! Day of Month
  7,                                      ! Month
  SummerDesignDay,                        ! Day Type
  0,                                      ! Daylight Saving Time Indicator
  Wetbulb,                                ! Humidity Indicating Type
  ,                                       ! Humidity Indicating Day Schedule Name
  DefaultMultipliers,                     ! Dry-Bulb Temperature Range Modifier Type
  ,                                       ! Dry-Bulb Temperature Range Modifier Schedule Name
  ASHRAETau,                              ! Solar Model Indicator
  ,                                       ! Beam Solar Day Schedule Name
  ,                                       ! Diffuse Solar Day Schedule Name
  0.405,                                  ! ASHRAE Taub {dimensionless}
  2.2;                                    ! ASHRAE Taud {dimensionless}

OS:ComponentData,
  {403e8a6b-84dc-466c-8cd6-6e329a23ba48}, ! Handle
  Component Data 1,                       ! Name
  {24a55f4b-6c98-4d59-8a1d-7b085c30c1da}, ! UUID
  {07a493dd-56e4-44c5-a904-e4dbd9e90f10}, ! Version UUID
  1366308277,                             ! Creation Timestamp
  1366308277,                             ! Version Timestamp
  {9fee6da0-82d5-463f-bbb2-0eaa10d25df9}; ! Name of Object 1

