
OS:Version,
  {ba3b5382-3f69-4308-b50a-215f1ddd7d74}, ! Handle
  0.9.3;                                  ! Version Identifier

OS:SizingPeriod:DesignDay,
  {06fa1694-4573-4af8-820b-5d8325b88592}, ! Handle
  Hanford Ann Clg 2% Condns DB=>MWB,      ! Name
  34,                                     ! Maximum Dry-Bulb Temperature {C}
  15.1,                                   ! Daily Dry-Bulb Temperature Range {deltaC}
  17.8,                                   ! Humidity Indicating Conditions at Maximum Dry-Bulb {BasedOnField A3}
  98675,                                  ! Barometric Pressure {Pa}
  3.3,                                    ! Wind Speed {m/s}
  0,                                      ! Wind Direction {deg}
  0,                                      ! Sky Clearness
  0,                                      ! Rain Indicator
  0,                                      ! Snow Indicator
  21,                                     ! Day of Month
  7,                                      ! Month
  SummerDesignDay,                        ! Day Type
  0,                                      ! Daylight Saving Time Indicator
  Wetbulb,                                ! Humidity Indicating Type
  ,                                       ! Humidity Indicating Day Schedule Name
  DefaultMultipliers,                     ! Dry-Bulb Temperature Range Modifier Type
  ,                                       ! Dry-Bulb Temperature Range Modifier Schedule Name
  ASHRAETau,                              ! Solar Model Indicator
  ,                                       ! Beam Solar Day Schedule Name
  ,                                       ! Diffuse Solar Day Schedule Name
  0.387,                                  ! ASHRAE Taub {dimensionless}
  2.251;                                  ! ASHRAE Taud {dimensionless}

OS:ComponentData,
  {986cd6d0-79f6-4d69-963c-9f085ec919aa}, ! Handle
  Component Data 1,                       ! Name
  {cc9bebd4-c338-4682-a9e5-ff33ff1af730}, ! UUID
  {e5ecd813-a133-4e4a-9004-ca52f092c83f}, ! Version UUID
  1366311286,                             ! Creation Timestamp
  1366311286,                             ! Version Timestamp
  {06fa1694-4573-4af8-820b-5d8325b88592}; ! Name of Object 1

