
OS:Version,
  {8825845e-00d2-4898-8beb-6ba2fcf771cd}, ! Handle
  0.9.3;                                  ! Version Identifier

OS:SizingPeriod:DesignDay,
  {dbf233f3-9b57-4691-aca4-3566c52397ac}, ! Handle
  COLD_BAY Ann Clg 1% Condns DP=>MDB,     ! Name
  12.9,                                   ! Maximum Dry-Bulb Temperature {C}
  4.4,                                    ! Daily Dry-Bulb Temperature Range {deltaC}
  11.8,                                   ! Humidity Indicating Conditions at Maximum Dry-Bulb {BasedOnField A3}
  100977,                                 ! Barometric Pressure {Pa}
  7,                                      ! Wind Speed {m/s}
  150,                                    ! Wind Direction {deg}
  0,                                      ! Sky Clearness
  0,                                      ! Rain Indicator
  0,                                      ! Snow Indicator
  21,                                     ! Day of Month
  8,                                      ! Month
  SummerDesignDay,                        ! Day Type
  0,                                      ! Daylight Saving Time Indicator
  Dewpoint,                               ! Humidity Indicating Type
  ,                                       ! Humidity Indicating Day Schedule Name
  DefaultMultipliers,                     ! Dry-Bulb Temperature Range Modifier Type
  ,                                       ! Dry-Bulb Temperature Range Modifier Schedule Name
  ASHRAETau,                              ! Solar Model Indicator
  ,                                       ! Beam Solar Day Schedule Name
  ,                                       ! Diffuse Solar Day Schedule Name
  0.383,                                  ! ASHRAE Taub {dimensionless}
  2.26;                                   ! ASHRAE Taud {dimensionless}

OS:ComponentData,
  {36ba96c6-a0b5-474c-95f7-fa61d35df73c}, ! Handle
  Component Data 1,                       ! Name
  {f3c30ca8-8016-43c4-9f4c-08838c6f1bd4}, ! UUID
  {05e919e4-842d-4c74-af58-e7915216b823}, ! Version UUID
  1366304809,                             ! Creation Timestamp
  1366304809,                             ! Version Timestamp
  {dbf233f3-9b57-4691-aca4-3566c52397ac}; ! Name of Object 1

