
OS:Version,
  {e6643e12-519a-4cb8-898b-848e764b49c3}, ! Handle
  0.9.3;                                  ! Version Identifier

OS:SizingPeriod:DesignDay,
  {6389a1ca-9cd0-4443-a191-770eab06359e}, ! Handle
  HELENA Ann Clg .4% Condns DB=>MWB,      ! Name
  33.7,                                   ! Maximum Dry-Bulb Temperature {C}
  16.1,                                   ! Daily Dry-Bulb Temperature Range {deltaC}
  16.4,                                   ! Humidity Indicating Conditions at Maximum Dry-Bulb {BasedOnField A3}
  87844,                                  ! Barometric Pressure {Pa}
  4.9,                                    ! Wind Speed {m/s}
  290,                                    ! Wind Direction {deg}
  0,                                      ! Sky Clearness
  0,                                      ! Rain Indicator
  0,                                      ! Snow Indicator
  21,                                     ! Day of Month
  7,                                      ! Month
  SummerDesignDay,                        ! Day Type
  0,                                      ! Daylight Saving Time Indicator
  Wetbulb,                                ! Humidity Indicating Type
  ,                                       ! Humidity Indicating Day Schedule Name
  DefaultMultipliers,                     ! Dry-Bulb Temperature Range Modifier Type
  ,                                       ! Dry-Bulb Temperature Range Modifier Schedule Name
  ASHRAETau,                              ! Solar Model Indicator
  ,                                       ! Beam Solar Day Schedule Name
  ,                                       ! Diffuse Solar Day Schedule Name
  0.38,                                   ! ASHRAE Taub {dimensionless}
  2.232;                                  ! ASHRAE Taud {dimensionless}

OS:ComponentData,
  {c68e97f7-bc15-4e80-8a10-fafa66cb0278}, ! Handle
  Component Data 1,                       ! Name
  {60e32927-ad29-4149-a057-ac5f0a42eb19}, ! UUID
  {99be3f09-a439-4899-9467-7963fb40efc1}, ! Version UUID
  1366308789,                             ! Creation Timestamp
  1366308789,                             ! Version Timestamp
  {6389a1ca-9cd0-4443-a191-770eab06359e}; ! Name of Object 1

