
OS:Version,
  {786d7f83-694f-48eb-978a-00a193aff2bc}, ! Handle
  0.9.3;                                  ! Version Identifier

OS:SizingPeriod:DesignDay,
  {f87f8b26-d04c-4554-8fa9-b7e0020fb8cb}, ! Handle
  Lakehurst NAS Ann Clg 2% Condns DB=>MWB, ! Name
  31,                                     ! Maximum Dry-Bulb Temperature {C}
  10.6,                                   ! Daily Dry-Bulb Temperature Range {deltaC}
  23,                                     ! Humidity Indicating Conditions at Maximum Dry-Bulb {BasedOnField A3}
  100917,                                 ! Barometric Pressure {Pa}
  4,                                      ! Wind Speed {m/s}
  240,                                    ! Wind Direction {deg}
  0,                                      ! Sky Clearness
  0,                                      ! Rain Indicator
  0,                                      ! Snow Indicator
  21,                                     ! Day of Month
  7,                                      ! Month
  SummerDesignDay,                        ! Day Type
  0,                                      ! Daylight Saving Time Indicator
  Wetbulb,                                ! Humidity Indicating Type
  ,                                       ! Humidity Indicating Day Schedule Name
  DefaultMultipliers,                     ! Dry-Bulb Temperature Range Modifier Type
  ,                                       ! Dry-Bulb Temperature Range Modifier Schedule Name
  ASHRAETau,                              ! Solar Model Indicator
  ,                                       ! Beam Solar Day Schedule Name
  ,                                       ! Diffuse Solar Day Schedule Name
  0.539,                                  ! ASHRAE Taub {dimensionless}
  1.807;                                  ! ASHRAE Taud {dimensionless}

OS:ComponentData,
  {a2c26d44-4243-44c6-ba57-fb83a5e94c59}, ! Handle
  Component Data 1,                       ! Name
  {6baba2a0-eaae-4f34-bbd1-e6ef22b777e9}, ! UUID
  {3e054ba4-84a6-4b4b-a4b4-ebcb42208214}, ! Version UUID
  1366309308,                             ! Creation Timestamp
  1366309308,                             ! Version Timestamp
  {f87f8b26-d04c-4554-8fa9-b7e0020fb8cb}; ! Name of Object 1

