
OS:Version,
  {bc2b5e0c-3723-4672-a6c0-0a6c3d9707e2}, ! Handle
  0.9.3;                                  ! Version Identifier

OS:SizingPeriod:DesignDay,
  {00519c4a-2c2d-4508-90c5-cc952439d016}, ! Handle
  Fairbanks Eielson A Ann Clg 1% Condns WB=>MDB, ! Name
  23.4,                                   ! Maximum Dry-Bulb Temperature {C}
  10.7,                                   ! Daily Dry-Bulb Temperature Range {deltaC}
  16.6,                                   ! Humidity Indicating Conditions at Maximum Dry-Bulb {BasedOnField A3}
  99335,                                  ! Barometric Pressure {Pa}
  2.7,                                    ! Wind Speed {m/s}
  270,                                    ! Wind Direction {deg}
  0,                                      ! Sky Clearness
  0,                                      ! Rain Indicator
  0,                                      ! Snow Indicator
  21,                                     ! Day of Month
  7,                                      ! Month
  SummerDesignDay,                        ! Day Type
  0,                                      ! Daylight Saving Time Indicator
  Wetbulb,                                ! Humidity Indicating Type
  ,                                       ! Humidity Indicating Day Schedule Name
  DefaultMultipliers,                     ! Dry-Bulb Temperature Range Modifier Type
  ,                                       ! Dry-Bulb Temperature Range Modifier Schedule Name
  ASHRAETau,                              ! Solar Model Indicator
  ,                                       ! Beam Solar Day Schedule Name
  ,                                       ! Diffuse Solar Day Schedule Name
  0.386,                                  ! ASHRAE Taub {dimensionless}
  2.208;                                  ! ASHRAE Taud {dimensionless}

OS:ComponentData,
  {6360ee87-233d-4914-a6d6-0b4630e4f01f}, ! Handle
  Component Data 1,                       ! Name
  {a7f2df08-ee88-482b-a03a-5935e5ded7e0}, ! UUID
  {b35a5134-ab19-4b23-b6ba-d5f59f77f32f}, ! Version UUID
  1366305245,                             ! Creation Timestamp
  1366305245,                             ! Version Timestamp
  {00519c4a-2c2d-4508-90c5-cc952439d016}; ! Name of Object 1

