
OS:Version,
  {8ba34e8f-a1ac-45d3-b067-787b165b73fc}, ! Handle
  0.9.3;                                  ! Version Identifier

OS:SizingPeriod:DesignDay,
  {aac68bc0-7d4e-48a3-ae6b-391fc2e390cc}, ! Handle
  Howell Ann Clg 2% Condns DB=>MWB,       ! Name
  29,                                     ! Maximum Dry-Bulb Temperature {C}
  12,                                     ! Daily Dry-Bulb Temperature Range {deltaC}
  21.4,                                   ! Humidity Indicating Conditions at Maximum Dry-Bulb {BasedOnField A3}
  97854,                                  ! Barometric Pressure {Pa}
  4.1,                                    ! Wind Speed {m/s}
  220,                                    ! Wind Direction {deg}
  0,                                      ! Sky Clearness
  0,                                      ! Rain Indicator
  0,                                      ! Snow Indicator
  21,                                     ! Day of Month
  7,                                      ! Month
  SummerDesignDay,                        ! Day Type
  0,                                      ! Daylight Saving Time Indicator
  Wetbulb,                                ! Humidity Indicating Type
  ,                                       ! Humidity Indicating Day Schedule Name
  DefaultMultipliers,                     ! Dry-Bulb Temperature Range Modifier Type
  ,                                       ! Dry-Bulb Temperature Range Modifier Schedule Name
  ASHRAETau,                              ! Solar Model Indicator
  ,                                       ! Beam Solar Day Schedule Name
  ,                                       ! Diffuse Solar Day Schedule Name
  0.445,                                  ! ASHRAE Taub {dimensionless}
  2.057;                                  ! ASHRAE Taud {dimensionless}

OS:ComponentData,
  {d66836db-6be0-41e6-88b2-95927aaa298a}, ! Handle
  Component Data 1,                       ! Name
  {c664607e-b5d6-4055-b096-1063d6e9294e}, ! UUID
  {2f28bb7a-30ff-4d97-88e3-a022c344ab9f}, ! Version UUID
  1366308034,                             ! Creation Timestamp
  1366308034,                             ! Version Timestamp
  {aac68bc0-7d4e-48a3-ae6b-391fc2e390cc}; ! Name of Object 1

