
OS:Version,
  {7628ba40-0fc3-46ad-93b4-7a2f9bbd1813}, ! Handle
  0.9.3;                                  ! Version Identifier

OS:SizingPeriod:DesignDay,
  {91afd125-3485-4942-a938-34502b7237e0}, ! Handle
  Grand Forks Af Ann Hum_n 99.6% Condns DP=>MCDB, ! Name
  -28.6,                                  ! Maximum Dry-Bulb Temperature {C}
  0,                                      ! Daily Dry-Bulb Temperature Range {deltaC}
  -33,                                    ! Humidity Indicating Conditions at Maximum Dry-Bulb {BasedOnField A3}
  98053,                                  ! Barometric Pressure {Pa}
  3.4,                                    ! Wind Speed {m/s}
  290,                                    ! Wind Direction {deg}
  0,                                      ! Sky Clearness
  0,                                      ! Rain Indicator
  0,                                      ! Snow Indicator
  21,                                     ! Day of Month
  1,                                      ! Month
  WinterDesignDay,                        ! Day Type
  0,                                      ! Daylight Saving Time Indicator
  Dewpoint,                               ! Humidity Indicating Type
  ,                                       ! Humidity Indicating Day Schedule Name
  DefaultMultipliers,                     ! Dry-Bulb Temperature Range Modifier Type
  ,                                       ! Dry-Bulb Temperature Range Modifier Schedule Name
  ASHRAEClearSky;                         ! Solar Model Indicator

OS:ComponentData,
  {9863f959-c3df-471d-ab2d-191915d23210}, ! Handle
  Component Data 1,                       ! Name
  {274d920f-8740-453e-9202-6f08ba145431}, ! UUID
  {f1dfd709-4d40-4b53-a07d-bdd64edba03b}, ! Version UUID
  1366309041,                             ! Creation Timestamp
  1366309041,                             ! Version Timestamp
  {91afd125-3485-4942-a938-34502b7237e0}; ! Name of Object 1

