
OS:Version,
  {faacd1de-3d6a-439d-977c-c853117219d7}, ! Handle
  0.9.3;                                  ! Version Identifier

OS:SizingPeriod:DesignDay,
  {a7427815-cc13-4604-9b28-9a7fc0634e16}, ! Handle
  Killeen Muni  Awos Ann Clg 1% Condns DP=>MDB, ! Name
  27.9,                                   ! Maximum Dry-Bulb Temperature {C}
  11.5,                                   ! Daily Dry-Bulb Temperature Range {deltaC}
  22.9,                                   ! Humidity Indicating Conditions at Maximum Dry-Bulb {BasedOnField A3}
  98264,                                  ! Barometric Pressure {Pa}
  4.4,                                    ! Wind Speed {m/s}
  170,                                    ! Wind Direction {deg}
  0,                                      ! Sky Clearness
  0,                                      ! Rain Indicator
  0,                                      ! Snow Indicator
  21,                                     ! Day of Month
  7,                                      ! Month
  SummerDesignDay,                        ! Day Type
  0,                                      ! Daylight Saving Time Indicator
  Dewpoint,                               ! Humidity Indicating Type
  ,                                       ! Humidity Indicating Day Schedule Name
  DefaultMultipliers,                     ! Dry-Bulb Temperature Range Modifier Type
  ,                                       ! Dry-Bulb Temperature Range Modifier Schedule Name
  ASHRAETau,                              ! Solar Model Indicator
  ,                                       ! Beam Solar Day Schedule Name
  ,                                       ! Diffuse Solar Day Schedule Name
  0.445,                                  ! ASHRAE Taub {dimensionless}
  2.145;                                  ! ASHRAE Taud {dimensionless}

OS:ComponentData,
  {062cb938-3220-421d-a220-762727e82b42}, ! Handle
  Component Data 1,                       ! Name
  {9e25197d-3e20-4a0c-ace6-a90479825236}, ! UUID
  {dd07158f-17b2-4cbd-bf05-0e3f1002f63b}, ! Version UUID
  1366310768,                             ! Creation Timestamp
  1366310768,                             ! Version Timestamp
  {a7427815-cc13-4604-9b28-9a7fc0634e16}; ! Name of Object 1

