
OS:Version,
  {dd5e1e43-6d69-4041-bb1f-018c4ef0367c}, ! Handle
  0.9.3;                                  ! Version Identifier

OS:SizingPeriod:DesignDay,
  {4ee5363f-e88f-445d-950d-06c058c47962}, ! Handle
  AUSTIN Ann Hum_n 99.6% Condns DP=>MCDB, ! Name
  1.3,                                    ! Maximum Dry-Bulb Temperature {C}
  0,                                      ! Daily Dry-Bulb Temperature Range {deltaC}
  -11.9,                                  ! Humidity Indicating Conditions at Maximum Dry-Bulb {BasedOnField A3}
  99075,                                  ! Barometric Pressure {Pa}
  3.2,                                    ! Wind Speed {m/s}
  10,                                     ! Wind Direction {deg}
  0,                                      ! Sky Clearness
  0,                                      ! Rain Indicator
  0,                                      ! Snow Indicator
  21,                                     ! Day of Month
  1,                                      ! Month
  WinterDesignDay,                        ! Day Type
  0,                                      ! Daylight Saving Time Indicator
  Dewpoint,                               ! Humidity Indicating Type
  ,                                       ! Humidity Indicating Day Schedule Name
  DefaultMultipliers,                     ! Dry-Bulb Temperature Range Modifier Type
  ,                                       ! Dry-Bulb Temperature Range Modifier Schedule Name
  ASHRAEClearSky;                         ! Solar Model Indicator

OS:ComponentData,
  {1542c66e-3214-4c5f-80d3-a457b34714bd}, ! Handle
  Component Data 1,                       ! Name
  {86793b31-5dde-4da9-a29a-d30ad6dd2ce7}, ! UUID
  {42b53d7f-2d3c-4641-873d-af5c37450fe3}, ! Version UUID
  1366310590,                             ! Creation Timestamp
  1366310590,                             ! Version Timestamp
  {4ee5363f-e88f-445d-950d-06c058c47962}; ! Name of Object 1

