
OS:Version,
  {161f208d-214c-4d48-9358-f8bff561292e}, ! Handle
  0.9.3;                                  ! Version Identifier

OS:SizingPeriod:DesignDay,
  {c670e1cb-cfcc-4ebb-b5f5-562260a5a573}, ! Handle
  Grand Rapids Awos Ann Htg Wind 99% Condns WS=>MCDB, ! Name
  -10.1,                                  ! Maximum Dry-Bulb Temperature {C}
  0,                                      ! Daily Dry-Bulb Temperature Range {deltaC}
  -10.1,                                  ! Humidity Indicating Conditions at Maximum Dry-Bulb {BasedOnField A3}
  96461,                                  ! Barometric Pressure {Pa}
  9.7,                                    ! Wind Speed {m/s}
  310,                                    ! Wind Direction {deg}
  0,                                      ! Sky Clearness
  0,                                      ! Rain Indicator
  0,                                      ! Snow Indicator
  21,                                     ! Day of Month
  1,                                      ! Month
  WinterDesignDay,                        ! Day Type
  0,                                      ! Daylight Saving Time Indicator
  Wetbulb,                                ! Humidity Indicating Type
  ,                                       ! Humidity Indicating Day Schedule Name
  DefaultMultipliers,                     ! Dry-Bulb Temperature Range Modifier Type
  ,                                       ! Dry-Bulb Temperature Range Modifier Schedule Name
  ASHRAEClearSky;                         ! Solar Model Indicator

OS:ComponentData,
  {c8cf09aa-cfcd-42e8-894e-9754fa55dc68}, ! Handle
  Component Data 1,                       ! Name
  {88091cf5-0a76-45b6-a2d4-edd3d98f08f1}, ! UUID
  {c98c1bb7-82b4-4da1-9c1e-afb7abaf7dc2}, ! Version UUID
  1366308245,                             ! Creation Timestamp
  1366308245,                             ! Version Timestamp
  {c670e1cb-cfcc-4ebb-b5f5-562260a5a573}; ! Name of Object 1

