
OS:Version,
  {4c7f4740-9dfb-4dc7-8a3c-535e3c02159a}, ! Handle
  0.9.3;                                  ! Version Identifier

OS:SizingPeriod:DesignDay,
  {410e7531-ef5e-4d99-802d-7a4761d7c354}, ! Handle
  Bluefield Mercer Co  Nrel Ann Clg 2% Condns DP=>MDB, ! Name
  22.9,                                   ! Maximum Dry-Bulb Temperature {C}
  8.6,                                    ! Daily Dry-Bulb Temperature Range {deltaC}
  19.4,                                   ! Humidity Indicating Conditions at Maximum Dry-Bulb {BasedOnField A3}
  92043,                                  ! Barometric Pressure {Pa}
  2.4,                                    ! Wind Speed {m/s}
  270,                                    ! Wind Direction {deg}
  0,                                      ! Sky Clearness
  0,                                      ! Rain Indicator
  0,                                      ! Snow Indicator
  21,                                     ! Day of Month
  7,                                      ! Month
  SummerDesignDay,                        ! Day Type
  0,                                      ! Daylight Saving Time Indicator
  Dewpoint,                               ! Humidity Indicating Type
  ,                                       ! Humidity Indicating Day Schedule Name
  DefaultMultipliers,                     ! Dry-Bulb Temperature Range Modifier Type
  ,                                       ! Dry-Bulb Temperature Range Modifier Schedule Name
  ASHRAETau,                              ! Solar Model Indicator
  ,                                       ! Beam Solar Day Schedule Name
  ,                                       ! Diffuse Solar Day Schedule Name
  0.476,                                  ! ASHRAE Taub {dimensionless}
  1.931;                                  ! ASHRAE Taud {dimensionless}

OS:ComponentData,
  {2be571a3-2704-433d-83a4-16e8ce4f6b01}, ! Handle
  Component Data 1,                       ! Name
  {118f4ef2-0339-4886-a13b-019d81855236}, ! UUID
  {872fbbb7-41b8-422f-bd8e-986cd40b913d}, ! Version UUID
  1366311615,                             ! Creation Timestamp
  1366311615,                             ! Version Timestamp
  {410e7531-ef5e-4d99-802d-7a4761d7c354}; ! Name of Object 1

