
OS:Version,
  {b344a872-44e4-4b82-b230-3ff2540d1aed}, ! Handle
  0.9.3;                                  ! Version Identifier

OS:SizingPeriod:DesignDay,
  {1c5fe36d-a556-4c5e-b652-40836fc9bbca}, ! Handle
  Detroit Willow Run Ap Ann Clg 2% Condns DB=>MWB, ! Name
  29.2,                                   ! Maximum Dry-Bulb Temperature {C}
  11.2,                                   ! Daily Dry-Bulb Temperature Range {deltaC}
  21.6,                                   ! Humidity Indicating Conditions at Maximum Dry-Bulb {BasedOnField A3}
  98733,                                  ! Barometric Pressure {Pa}
  5.3,                                    ! Wind Speed {m/s}
  230,                                    ! Wind Direction {deg}
  0,                                      ! Sky Clearness
  0,                                      ! Rain Indicator
  0,                                      ! Snow Indicator
  21,                                     ! Day of Month
  7,                                      ! Month
  SummerDesignDay,                        ! Day Type
  0,                                      ! Daylight Saving Time Indicator
  Wetbulb,                                ! Humidity Indicating Type
  ,                                       ! Humidity Indicating Day Schedule Name
  DefaultMultipliers,                     ! Dry-Bulb Temperature Range Modifier Type
  ,                                       ! Dry-Bulb Temperature Range Modifier Schedule Name
  ASHRAETau,                              ! Solar Model Indicator
  ,                                       ! Beam Solar Day Schedule Name
  ,                                       ! Diffuse Solar Day Schedule Name
  0.465,                                  ! ASHRAE Taub {dimensionless}
  1.99;                                   ! ASHRAE Taud {dimensionless}

OS:ComponentData,
  {b68b5a22-784e-4134-909c-7fe61cf2f5d7}, ! Handle
  Component Data 1,                       ! Name
  {8ce0fad9-044a-41fd-88ed-b99b6f0e9245}, ! UUID
  {2f7f5c85-a801-4391-ba88-e1c5cf534bff}, ! Version UUID
  1366307984,                             ! Creation Timestamp
  1366307984,                             ! Version Timestamp
  {1c5fe36d-a556-4c5e-b652-40836fc9bbca}; ! Name of Object 1

