
OS:Version,
  {b4aa4196-50b9-4e6d-abd3-8b60aa08e134}, ! Handle
  0.9.3;                                  ! Version Identifier

OS:SizingPeriod:DesignDay,
  {b019a31a-379d-42b1-a497-fdd042447144}, ! Handle
  Davison Aaf Ann Clg .4% Condns Enth=>MDB, ! Name
  32.7,                                   ! Maximum Dry-Bulb Temperature {C}
  11.7,                                   ! Daily Dry-Bulb Temperature Range {deltaC}
  81700,                                  ! Humidity Indicating Conditions at Maximum Dry-Bulb {BasedOnField A3}
  101001,                                 ! Barometric Pressure {Pa}
  2.9,                                    ! Wind Speed {m/s}
  160,                                    ! Wind Direction {deg}
  0,                                      ! Sky Clearness
  0,                                      ! Rain Indicator
  0,                                      ! Snow Indicator
  21,                                     ! Day of Month
  7,                                      ! Month
  SummerDesignDay,                        ! Day Type
  0,                                      ! Daylight Saving Time Indicator
  Enthalpy,                               ! Humidity Indicating Type
  ,                                       ! Humidity Indicating Day Schedule Name
  DefaultMultipliers,                     ! Dry-Bulb Temperature Range Modifier Type
  ,                                       ! Dry-Bulb Temperature Range Modifier Schedule Name
  ASHRAETau,                              ! Solar Model Indicator
  ,                                       ! Beam Solar Day Schedule Name
  ,                                       ! Diffuse Solar Day Schedule Name
  0.566,                                  ! ASHRAE Taub {dimensionless}
  1.742;                                  ! ASHRAE Taud {dimensionless}

OS:ComponentData,
  {a504b202-2d7f-41fb-ae92-34d4e5091a0d}, ! Handle
  Component Data 1,                       ! Name
  {dc02f191-7915-4927-ac02-74181a5c3e39}, ! UUID
  {392040de-353b-4b1e-801a-6730932f0d21}, ! Version UUID
  1366311041,                             ! Creation Timestamp
  1366311041,                             ! Version Timestamp
  {b019a31a-379d-42b1-a497-fdd042447144}; ! Name of Object 1

