
OS:Version,
  {0d6b90a1-05f9-46dd-8649-b931763fa1ac}, ! Handle
  0.9.3;                                  ! Version Identifier

OS:SizingPeriod:DesignDay,
  {8fc6bc11-e0b3-450a-afd1-77c1e4846d48}, ! Handle
  Fayetteville Pope Afb Ann Clg 1% Condns Enth=>MDB, ! Name
  31.5,                                   ! Maximum Dry-Bulb Temperature {C}
  10.4,                                   ! Daily Dry-Bulb Temperature Range {deltaC}
  79400,                                  ! Humidity Indicating Conditions at Maximum Dry-Bulb {BasedOnField A3}
  100535,                                 ! Barometric Pressure {Pa}
  3.4,                                    ! Wind Speed {m/s}
  230,                                    ! Wind Direction {deg}
  0,                                      ! Sky Clearness
  0,                                      ! Rain Indicator
  0,                                      ! Snow Indicator
  21,                                     ! Day of Month
  7,                                      ! Month
  SummerDesignDay,                        ! Day Type
  0,                                      ! Daylight Saving Time Indicator
  Enthalpy,                               ! Humidity Indicating Type
  ,                                       ! Humidity Indicating Day Schedule Name
  DefaultMultipliers,                     ! Dry-Bulb Temperature Range Modifier Type
  ,                                       ! Dry-Bulb Temperature Range Modifier Schedule Name
  ASHRAETau,                              ! Solar Model Indicator
  ,                                       ! Beam Solar Day Schedule Name
  ,                                       ! Diffuse Solar Day Schedule Name
  0.584,                                  ! ASHRAE Taub {dimensionless}
  1.713;                                  ! ASHRAE Taud {dimensionless}

OS:ComponentData,
  {ac314416-4165-486c-a41e-dbe2f673c2fc}, ! Handle
  Component Data 1,                       ! Name
  {92471132-94ad-42dc-bd7d-917260525399}, ! UUID
  {9f4d26ec-b1c6-451d-a831-3ccf481e53a6}, ! Version UUID
  1366308912,                             ! Creation Timestamp
  1366308912,                             ! Version Timestamp
  {8fc6bc11-e0b3-450a-afd1-77c1e4846d48}; ! Name of Object 1

