
OS:Version,
  {dafbc1cf-4a6f-4272-9b71-86703eb9bf5b}, ! Handle
  0.9.3;                                  ! Version Identifier

OS:SizingPeriod:DesignDay,
  {19bcf05a-beeb-4ae9-8be7-c3a5f403ae3c}, ! Handle
  Chicago Midway Ap Ann Hum_n 99.6% Condns DP=>MCDB, ! Name
  -18,                                    ! Maximum Dry-Bulb Temperature {C}
  0,                                      ! Daily Dry-Bulb Temperature Range {deltaC}
  -24.5,                                  ! Humidity Indicating Conditions at Maximum Dry-Bulb {BasedOnField A3}
  99110,                                  ! Barometric Pressure {Pa}
  5.3,                                    ! Wind Speed {m/s}
  300,                                    ! Wind Direction {deg}
  0,                                      ! Sky Clearness
  0,                                      ! Rain Indicator
  0,                                      ! Snow Indicator
  21,                                     ! Day of Month
  1,                                      ! Month
  WinterDesignDay,                        ! Day Type
  0,                                      ! Daylight Saving Time Indicator
  Dewpoint,                               ! Humidity Indicating Type
  ,                                       ! Humidity Indicating Day Schedule Name
  DefaultMultipliers,                     ! Dry-Bulb Temperature Range Modifier Type
  ,                                       ! Dry-Bulb Temperature Range Modifier Schedule Name
  ASHRAEClearSky;                         ! Solar Model Indicator

OS:ComponentData,
  {911134c6-9555-4195-9e1b-d9da7b3e02cf}, ! Handle
  Component Data 1,                       ! Name
  {ed1eeedd-6985-4f53-83d3-4da1f25f8835}, ! UUID
  {461ce0dc-904b-4004-a85a-b473404fd3c4}, ! Version UUID
  1366307342,                             ! Creation Timestamp
  1366307342,                             ! Version Timestamp
  {19bcf05a-beeb-4ae9-8be7-c3a5f403ae3c}; ! Name of Object 1

