
OS:Version,
  {1822d785-7063-45d3-b726-dbee397947e9}, ! Handle
  0.9.3;                                  ! Version Identifier

OS:SizingPeriod:DesignDay,
  {4681f80d-eda4-4062-9f1f-0e585e721ff9}, ! Handle
  Bakersfield Ann Clg 1% Condns WB=>MDB,  ! Name
  35.3,                                   ! Maximum Dry-Bulb Temperature {C}
  14.9,                                   ! Daily Dry-Bulb Temperature Range {deltaC}
  22.4,                                   ! Humidity Indicating Conditions at Maximum Dry-Bulb {BasedOnField A3}
  99536,                                  ! Barometric Pressure {Pa}
  5.3,                                    ! Wind Speed {m/s}
  300,                                    ! Wind Direction {deg}
  0,                                      ! Sky Clearness
  0,                                      ! Rain Indicator
  0,                                      ! Snow Indicator
  21,                                     ! Day of Month
  7,                                      ! Month
  SummerDesignDay,                        ! Day Type
  0,                                      ! Daylight Saving Time Indicator
  Wetbulb,                                ! Humidity Indicating Type
  ,                                       ! Humidity Indicating Day Schedule Name
  DefaultMultipliers,                     ! Dry-Bulb Temperature Range Modifier Type
  ,                                       ! Dry-Bulb Temperature Range Modifier Schedule Name
  ASHRAETau,                              ! Solar Model Indicator
  ,                                       ! Beam Solar Day Schedule Name
  ,                                       ! Diffuse Solar Day Schedule Name
  0.438,                                  ! ASHRAE Taub {dimensionless}
  2.106;                                  ! ASHRAE Taud {dimensionless}

OS:ComponentData,
  {93c48558-d16f-4dc4-a252-53e73a756c1c}, ! Handle
  Component Data 1,                       ! Name
  {ac56f025-0ab1-4e73-a673-133fd7a991eb}, ! UUID
  {72cc9a27-2e6a-4c6e-8228-f6313a4aeaed}, ! Version UUID
  1366306361,                             ! Creation Timestamp
  1366306361,                             ! Version Timestamp
  {4681f80d-eda4-4062-9f1f-0e585e721ff9}; ! Name of Object 1

