
OS:Version,
  {d4d10bdd-38e4-49df-bc29-e946557b3052}, ! Handle
  0.9.3;                                  ! Version Identifier

OS:SizingPeriod:DesignDay,
  {3b7f87d5-d119-4cb9-b620-860a214a979b}, ! Handle
  HOUSTON Ann Clg 1% Condns DP=>MDB,      ! Name
  28,                                     ! Maximum Dry-Bulb Temperature {C}
  10.1,                                   ! Daily Dry-Bulb Temperature Range {deltaC}
  25.1,                                   ! Humidity Indicating Conditions at Maximum Dry-Bulb {BasedOnField A3}
  100929,                                 ! Barometric Pressure {Pa}
  3.5,                                    ! Wind Speed {m/s}
  170,                                    ! Wind Direction {deg}
  0,                                      ! Sky Clearness
  0,                                      ! Rain Indicator
  0,                                      ! Snow Indicator
  21,                                     ! Day of Month
  7,                                      ! Month
  SummerDesignDay,                        ! Day Type
  0,                                      ! Daylight Saving Time Indicator
  Dewpoint,                               ! Humidity Indicating Type
  ,                                       ! Humidity Indicating Day Schedule Name
  DefaultMultipliers,                     ! Dry-Bulb Temperature Range Modifier Type
  ,                                       ! Dry-Bulb Temperature Range Modifier Schedule Name
  ASHRAETau,                              ! Solar Model Indicator
  ,                                       ! Beam Solar Day Schedule Name
  ,                                       ! Diffuse Solar Day Schedule Name
  0.499,                                  ! ASHRAE Taub {dimensionless}
  1.97;                                   ! ASHRAE Taud {dimensionless}

OS:ComponentData,
  {972786bb-fa4e-4b7c-ab60-5dfb8e5a27fd}, ! Handle
  Component Data 1,                       ! Name
  {645e53ce-70ae-48b2-881d-0033a4d3aa9b}, ! UUID
  {d3f7b630-b724-4ead-8b56-bfe97860cc63}, ! Version UUID
  1366310756,                             ! Creation Timestamp
  1366310756,                             ! Version Timestamp
  {3b7f87d5-d119-4cb9-b620-860a214a979b}; ! Name of Object 1

