
OS:Version,
  {cf84e5a8-b20a-4f63-8f51-d969ba693272}, ! Handle
  0.9.3;                                  ! Version Identifier

OS:SizingPeriod:DesignDay,
  {7d708388-1af0-459a-a815-e0aedff3f625}, ! Handle
  Appleton Outagamie Ann Clg 1% Condns WB=>MDB, ! Name
  28,                                     ! Maximum Dry-Bulb Temperature {C}
  10,                                     ! Daily Dry-Bulb Temperature Range {deltaC}
  24.1,                                   ! Humidity Indicating Conditions at Maximum Dry-Bulb {BasedOnField A3}
  98006,                                  ! Barometric Pressure {Pa}
  5.3,                                    ! Wind Speed {m/s}
  210,                                    ! Wind Direction {deg}
  0,                                      ! Sky Clearness
  0,                                      ! Rain Indicator
  0,                                      ! Snow Indicator
  21,                                     ! Day of Month
  7,                                      ! Month
  SummerDesignDay,                        ! Day Type
  0,                                      ! Daylight Saving Time Indicator
  Wetbulb,                                ! Humidity Indicating Type
  ,                                       ! Humidity Indicating Day Schedule Name
  DefaultMultipliers,                     ! Dry-Bulb Temperature Range Modifier Type
  ,                                       ! Dry-Bulb Temperature Range Modifier Schedule Name
  ASHRAETau,                              ! Solar Model Indicator
  ,                                       ! Beam Solar Day Schedule Name
  ,                                       ! Diffuse Solar Day Schedule Name
  0.429,                                  ! ASHRAE Taub {dimensionless}
  2.121;                                  ! ASHRAE Taud {dimensionless}

OS:ComponentData,
  {a2134f7a-3cdc-4466-8629-daad112c5d82}, ! Handle
  Component Data 1,                       ! Name
  {43acc39f-b4f1-460b-8de8-58f96fdb8ae3}, ! UUID
  {50207910-6211-4ef6-bc06-caf6c7cebe19}, ! Version UUID
  1366311458,                             ! Creation Timestamp
  1366311458,                             ! Version Timestamp
  {7d708388-1af0-459a-a815-e0aedff3f625}; ! Name of Object 1

