
OS:Version,
  {4b985f94-2001-4c6d-a942-0e79977e41f5}, ! Handle
  0.9.3;                                  ! Version Identifier

OS:SizingPeriod:DesignDay,
  {6b278bc1-ed14-4d72-9183-46b4e0e2a97f}, ! Handle
  LUBBOCK Ann Clg 2% Condns DB=>MWB,      ! Name
  34.4,                                   ! Maximum Dry-Bulb Temperature {C}
  13.1,                                   ! Daily Dry-Bulb Temperature Range {deltaC}
  19.7,                                   ! Humidity Indicating Conditions at Maximum Dry-Bulb {BasedOnField A3}
  90005,                                  ! Barometric Pressure {Pa}
  6.4,                                    ! Wind Speed {m/s}
  170,                                    ! Wind Direction {deg}
  0,                                      ! Sky Clearness
  0,                                      ! Rain Indicator
  0,                                      ! Snow Indicator
  21,                                     ! Day of Month
  7,                                      ! Month
  SummerDesignDay,                        ! Day Type
  0,                                      ! Daylight Saving Time Indicator
  Wetbulb,                                ! Humidity Indicating Type
  ,                                       ! Humidity Indicating Day Schedule Name
  DefaultMultipliers,                     ! Dry-Bulb Temperature Range Modifier Type
  ,                                       ! Dry-Bulb Temperature Range Modifier Schedule Name
  ASHRAETau,                              ! Solar Model Indicator
  ,                                       ! Beam Solar Day Schedule Name
  ,                                       ! Diffuse Solar Day Schedule Name
  0.396,                                  ! ASHRAE Taub {dimensionless}
  2.241;                                  ! ASHRAE Taud {dimensionless}

OS:ComponentData,
  {331f45b7-7e90-4a44-b924-5ae01825880d}, ! Handle
  Component Data 1,                       ! Name
  {520caab3-5899-43ac-a398-2a4fb5b0fec4}, ! UUID
  {771dac12-a9b2-4a4e-be94-9892cc21bfaf}, ! Version UUID
  1366310791,                             ! Creation Timestamp
  1366310791,                             ! Version Timestamp
  {6b278bc1-ed14-4d72-9183-46b4e0e2a97f}; ! Name of Object 1

