
OS:Version,
  {1150d8ad-9a9d-4b58-a782-f60d8db29e70}, ! Handle
  0.9.3;                                  ! Version Identifier

OS:SizingPeriod:DesignDay,
  {9de3c468-f0f6-4397-92fa-5d667185080e}, ! Handle
  Fort Polk Aaf Ann Clg 1% Condns DP=>MDB, ! Name
  27.6,                                   ! Maximum Dry-Bulb Temperature {C}
  10,                                     ! Daily Dry-Bulb Temperature Range {deltaC}
  24.9,                                   ! Humidity Indicating Conditions at Maximum Dry-Bulb {BasedOnField A3}
  100106,                                 ! Barometric Pressure {Pa}
  2.2,                                    ! Wind Speed {m/s}
  180,                                    ! Wind Direction {deg}
  0,                                      ! Sky Clearness
  0,                                      ! Rain Indicator
  0,                                      ! Snow Indicator
  21,                                     ! Day of Month
  7,                                      ! Month
  SummerDesignDay,                        ! Day Type
  0,                                      ! Daylight Saving Time Indicator
  Dewpoint,                               ! Humidity Indicating Type
  ,                                       ! Humidity Indicating Day Schedule Name
  DefaultMultipliers,                     ! Dry-Bulb Temperature Range Modifier Type
  ,                                       ! Dry-Bulb Temperature Range Modifier Schedule Name
  ASHRAETau,                              ! Solar Model Indicator
  ,                                       ! Beam Solar Day Schedule Name
  ,                                       ! Diffuse Solar Day Schedule Name
  0.512,                                  ! ASHRAE Taub {dimensionless}
  1.937;                                  ! ASHRAE Taud {dimensionless}

OS:ComponentData,
  {2762a0e1-4a23-417d-9513-644bdfbf7e03}, ! Handle
  Component Data 1,                       ! Name
  {dcc62642-e7de-441a-b8e5-e19577245717}, ! UUID
  {df0cd459-5c4d-41ee-8ae4-7d88dbf24853}, ! Version UUID
  1366307716,                             ! Creation Timestamp
  1366307716,                             ! Version Timestamp
  {9de3c468-f0f6-4397-92fa-5d667185080e}; ! Name of Object 1

