
OS:Version,
  {affa2b55-e9ab-4fd4-adf7-8fa4d80cda95}, ! Handle
  0.9.3;                                  ! Version Identifier

OS:SizingPeriod:DesignDay,
  {c46c2a40-a646-4a0d-9699-35891939b0c3}, ! Handle
  Creston Ann Clg .4% Condns WB=>MDB,     ! Name
  32.3,                                   ! Maximum Dry-Bulb Temperature {C}
  10.2,                                   ! Daily Dry-Bulb Temperature Range {deltaC}
  26.8,                                   ! Humidity Indicating Conditions at Maximum Dry-Bulb {BasedOnField A3}
  96680,                                  ! Barometric Pressure {Pa}
  5,                                      ! Wind Speed {m/s}
  200,                                    ! Wind Direction {deg}
  0,                                      ! Sky Clearness
  0,                                      ! Rain Indicator
  0,                                      ! Snow Indicator
  21,                                     ! Day of Month
  7,                                      ! Month
  SummerDesignDay,                        ! Day Type
  0,                                      ! Daylight Saving Time Indicator
  Wetbulb,                                ! Humidity Indicating Type
  ,                                       ! Humidity Indicating Day Schedule Name
  DefaultMultipliers,                     ! Dry-Bulb Temperature Range Modifier Type
  ,                                       ! Dry-Bulb Temperature Range Modifier Schedule Name
  ASHRAETau,                              ! Solar Model Indicator
  ,                                       ! Beam Solar Day Schedule Name
  ,                                       ! Diffuse Solar Day Schedule Name
  0.417,                                  ! ASHRAE Taub {dimensionless}
  2.197;                                  ! ASHRAE Taud {dimensionless}

OS:ComponentData,
  {b255f1cd-7dc0-4428-9ff7-aad316a0fdbf}, ! Handle
  Component Data 1,                       ! Name
  {e342a2b7-1eba-49d9-aff2-876b6e3b2493}, ! UUID
  {2b5a9d76-fa69-404d-847e-f810f050ac55}, ! Version UUID
  1366307165,                             ! Creation Timestamp
  1366307165,                             ! Version Timestamp
  {c46c2a40-a646-4a0d-9699-35891939b0c3}; ! Name of Object 1

