
OS:Version,
  {e34a6b9f-fefb-4060-96ae-b402d75f8c20}, ! Handle
  0.9.3;                                  ! Version Identifier

OS:SizingPeriod:DesignDay,
  {5d29b438-fdcd-4e35-bd3a-0e83ef46c372}, ! Handle
  La Grande Muni Ap Ann Clg 1% Condns DB=>MWB, ! Name
  32.3,                                   ! Maximum Dry-Bulb Temperature {C}
  17.9,                                   ! Daily Dry-Bulb Temperature Range {deltaC}
  16.7,                                   ! Humidity Indicating Conditions at Maximum Dry-Bulb {BasedOnField A3}
  91777,                                  ! Barometric Pressure {Pa}
  3.7,                                    ! Wind Speed {m/s}
  310,                                    ! Wind Direction {deg}
  0,                                      ! Sky Clearness
  0,                                      ! Rain Indicator
  0,                                      ! Snow Indicator
  21,                                     ! Day of Month
  7,                                      ! Month
  SummerDesignDay,                        ! Day Type
  0,                                      ! Daylight Saving Time Indicator
  Wetbulb,                                ! Humidity Indicating Type
  ,                                       ! Humidity Indicating Day Schedule Name
  DefaultMultipliers,                     ! Dry-Bulb Temperature Range Modifier Type
  ,                                       ! Dry-Bulb Temperature Range Modifier Schedule Name
  ASHRAETau,                              ! Solar Model Indicator
  ,                                       ! Beam Solar Day Schedule Name
  ,                                       ! Diffuse Solar Day Schedule Name
  0.366,                                  ! ASHRAE Taub {dimensionless}
  2.357;                                  ! ASHRAE Taud {dimensionless}

OS:ComponentData,
  {7401e4da-fd1d-4b83-ae2b-93b935a69353}, ! Handle
  Component Data 1,                       ! Name
  {fb8a79d8-9459-470d-a393-9a839c80aa82}, ! UUID
  {21f173cb-e80f-49d0-8180-d059a0d407a7}, ! Version UUID
  1366310021,                             ! Creation Timestamp
  1366310021,                             ! Version Timestamp
  {5d29b438-fdcd-4e35-bd3a-0e83ef46c372}; ! Name of Object 1

