
OS:Version,
  {d7d13bc2-4fa8-49a2-bf35-9896b64bce35}, ! Handle
  0.9.3;                                  ! Version Identifier

OS:SizingPeriod:DesignDay,
  {eb58f1a1-f0cd-49c5-9a98-7c47c4023801}, ! Handle
  KOTZEBUE Ann Clg .4% Condns DP=>MDB,    ! Name
  17.4,                                   ! Maximum Dry-Bulb Temperature {C}
  4.9,                                    ! Daily Dry-Bulb Temperature Range {deltaC}
  14.5,                                   ! Humidity Indicating Conditions at Maximum Dry-Bulb {BasedOnField A3}
  101265,                                 ! Barometric Pressure {Pa}
  4.7,                                    ! Wind Speed {m/s}
  300,                                    ! Wind Direction {deg}
  0,                                      ! Sky Clearness
  0,                                      ! Rain Indicator
  0,                                      ! Snow Indicator
  21,                                     ! Day of Month
  7,                                      ! Month
  SummerDesignDay,                        ! Day Type
  0,                                      ! Daylight Saving Time Indicator
  Dewpoint,                               ! Humidity Indicating Type
  ,                                       ! Humidity Indicating Day Schedule Name
  DefaultMultipliers,                     ! Dry-Bulb Temperature Range Modifier Type
  ,                                       ! Dry-Bulb Temperature Range Modifier Schedule Name
  ASHRAETau,                              ! Solar Model Indicator
  ,                                       ! Beam Solar Day Schedule Name
  ,                                       ! Diffuse Solar Day Schedule Name
  0.374,                                  ! ASHRAE Taub {dimensionless}
  2.244;                                  ! ASHRAE Taud {dimensionless}

OS:ComponentData,
  {e9a05470-3d85-4b6a-97c4-f5cf55419210}, ! Handle
  Component Data 1,                       ! Name
  {eb0186ad-2787-4a69-930d-9fb49bdf8322}, ! UUID
  {644e1386-3341-441b-bb9d-31c39bc273bf}, ! Version UUID
  1366305395,                             ! Creation Timestamp
  1366305395,                             ! Version Timestamp
  {eb58f1a1-f0cd-49c5-9a98-7c47c4023801}; ! Name of Object 1

