
OS:Version,
  {3e392c66-f576-49f7-ad49-a3c6e51124ab}, ! Handle
  0.9.3;                                  ! Version Identifier

OS:SizingPeriod:DesignDay,
  {057f6740-8d73-48de-9738-961aab824455}, ! Handle
  Durango La Plata Co Ann Clg 1% Condns WB=>MDB, ! Name
  24.7,                                   ! Maximum Dry-Bulb Temperature {C}
  17.6,                                   ! Daily Dry-Bulb Temperature Range {deltaC}
  16,                                     ! Humidity Indicating Conditions at Maximum Dry-Bulb {BasedOnField A3}
  79121,                                  ! Barometric Pressure {Pa}
  4.9,                                    ! Wind Speed {m/s}
  250,                                    ! Wind Direction {deg}
  0,                                      ! Sky Clearness
  0,                                      ! Rain Indicator
  0,                                      ! Snow Indicator
  21,                                     ! Day of Month
  7,                                      ! Month
  SummerDesignDay,                        ! Day Type
  0,                                      ! Daylight Saving Time Indicator
  Wetbulb,                                ! Humidity Indicating Type
  ,                                       ! Humidity Indicating Day Schedule Name
  DefaultMultipliers,                     ! Dry-Bulb Temperature Range Modifier Type
  ,                                       ! Dry-Bulb Temperature Range Modifier Schedule Name
  ASHRAETau,                              ! Solar Model Indicator
  ,                                       ! Beam Solar Day Schedule Name
  ,                                       ! Diffuse Solar Day Schedule Name
  0.396,                                  ! ASHRAE Taub {dimensionless}
  2.134;                                  ! ASHRAE Taud {dimensionless}

OS:ComponentData,
  {63f5a9fe-9a22-45f6-878f-a0ea737c326a}, ! Handle
  Component Data 1,                       ! Name
  {fd9e722b-8694-46c9-91f1-629281b9528c}, ! UUID
  {b3d6316b-6b52-4e80-b101-cab3a0d3de62}, ! Version UUID
  1366306681,                             ! Creation Timestamp
  1366306681,                             ! Version Timestamp
  {057f6740-8d73-48de-9738-961aab824455}; ! Name of Object 1

