
OS:Version,
  {d335f411-425b-489d-a284-b26d855c7c39}, ! Handle
  0.9.3;                                  ! Version Identifier

OS:SizingPeriod:DesignDay,
  {71ffc83b-df32-4639-9972-9a5a46d5e9d1}, ! Handle
  Childress Municipal Ap Ann Clg 1% Condns DB=>MWB, ! Name
  37.1,                                   ! Maximum Dry-Bulb Temperature {C}
  12.7,                                   ! Daily Dry-Bulb Temperature Range {deltaC}
  21.9,                                   ! Humidity Indicating Conditions at Maximum Dry-Bulb {BasedOnField A3}
  94378,                                  ! Barometric Pressure {Pa}
  5.8,                                    ! Wind Speed {m/s}
  170,                                    ! Wind Direction {deg}
  0,                                      ! Sky Clearness
  0,                                      ! Rain Indicator
  0,                                      ! Snow Indicator
  21,                                     ! Day of Month
  7,                                      ! Month
  SummerDesignDay,                        ! Day Type
  0,                                      ! Daylight Saving Time Indicator
  Wetbulb,                                ! Humidity Indicating Type
  ,                                       ! Humidity Indicating Day Schedule Name
  DefaultMultipliers,                     ! Dry-Bulb Temperature Range Modifier Type
  ,                                       ! Dry-Bulb Temperature Range Modifier Schedule Name
  ASHRAETau,                              ! Solar Model Indicator
  ,                                       ! Beam Solar Day Schedule Name
  ,                                       ! Diffuse Solar Day Schedule Name
  0.413,                                  ! ASHRAE Taub {dimensionless}
  2.207;                                  ! ASHRAE Taud {dimensionless}

OS:ComponentData,
  {ba7aa9f1-e08a-4ec8-928d-5d3c3c13f853}, ! Handle
  Component Data 1,                       ! Name
  {45768190-591d-4b7e-8449-cc2eecaab1cd}, ! UUID
  {ebe63479-2dfb-471f-a3b9-a73edd2f6d0b}, ! Version UUID
  1366310614,                             ! Creation Timestamp
  1366310614,                             ! Version Timestamp
  {71ffc83b-df32-4639-9972-9a5a46d5e9d1}; ! Name of Object 1

