
OS:Version,
  {62372cf9-e8e0-4f82-b4e1-0784b4ec773c}, ! Handle
  0.9.3;                                  ! Version Identifier

OS:SizingPeriod:DesignDay,
  {90778d2c-4a20-4453-8f9c-b3d32d746dfe}, ! Handle
  Bozeman Gallatin Field Ann Clg 2% Condns Enth=>MDB, ! Name
  26.7,                                   ! Maximum Dry-Bulb Temperature {C}
  18.3,                                   ! Daily Dry-Bulb Temperature Range {deltaC}
  49900,                                  ! Humidity Indicating Conditions at Maximum Dry-Bulb {BasedOnField A3}
  86135,                                  ! Barometric Pressure {Pa}
  3.8,                                    ! Wind Speed {m/s}
  0,                                      ! Wind Direction {deg}
  0,                                      ! Sky Clearness
  0,                                      ! Rain Indicator
  0,                                      ! Snow Indicator
  21,                                     ! Day of Month
  7,                                      ! Month
  SummerDesignDay,                        ! Day Type
  0,                                      ! Daylight Saving Time Indicator
  Enthalpy,                               ! Humidity Indicating Type
  ,                                       ! Humidity Indicating Day Schedule Name
  DefaultMultipliers,                     ! Dry-Bulb Temperature Range Modifier Type
  ,                                       ! Dry-Bulb Temperature Range Modifier Schedule Name
  ASHRAETau,                              ! Solar Model Indicator
  ,                                       ! Beam Solar Day Schedule Name
  ,                                       ! Diffuse Solar Day Schedule Name
  0.384,                                  ! ASHRAE Taub {dimensionless}
  2.199;                                  ! ASHRAE Taud {dimensionless}

