
OS:Version,
  {0cc58ac7-d885-40a6-ab94-b8c420eea2df}, ! Handle
  0.9.3;                                  ! Version Identifier

OS:SizingPeriod:DesignDay,
  {750520d7-c4a3-4753-8d58-d022bed7fdfd}, ! Handle
  Lafayette Regional Ap Ann Clg 1% Condns WB=>MDB, ! Name
  31.3,                                   ! Maximum Dry-Bulb Temperature {C}
  8.9,                                    ! Daily Dry-Bulb Temperature Range {deltaC}
  26.7,                                   ! Humidity Indicating Conditions at Maximum Dry-Bulb {BasedOnField A3}
  101181,                                 ! Barometric Pressure {Pa}
  3.5,                                    ! Wind Speed {m/s}
  110,                                    ! Wind Direction {deg}
  0,                                      ! Sky Clearness
  0,                                      ! Rain Indicator
  0,                                      ! Snow Indicator
  21,                                     ! Day of Month
  7,                                      ! Month
  SummerDesignDay,                        ! Day Type
  0,                                      ! Daylight Saving Time Indicator
  Wetbulb,                                ! Humidity Indicating Type
  ,                                       ! Humidity Indicating Day Schedule Name
  DefaultMultipliers,                     ! Dry-Bulb Temperature Range Modifier Type
  ,                                       ! Dry-Bulb Temperature Range Modifier Schedule Name
  ASHRAETau,                              ! Solar Model Indicator
  ,                                       ! Beam Solar Day Schedule Name
  ,                                       ! Diffuse Solar Day Schedule Name
  0.532,                                  ! ASHRAE Taub {dimensionless}
  1.875;                                  ! ASHRAE Taud {dimensionless}

OS:ComponentData,
  {1762907b-ecb3-42ee-b991-605f1ea61573}, ! Handle
  Component Data 1,                       ! Name
  {2692766e-400a-4b12-91de-ff4854a974ce}, ! UUID
  {7bc20dac-b821-48e3-aaed-91342b244ba2}, ! Version UUID
  1366307720,                             ! Creation Timestamp
  1366307720,                             ! Version Timestamp
  {750520d7-c4a3-4753-8d58-d022bed7fdfd}; ! Name of Object 1

