
OS:Version,
  {dddb5fa9-eec6-408e-9cac-7ea9111d1802}, ! Handle
  0.9.3;                                  ! Version Identifier

OS:SizingPeriod:DesignDay,
  {c8390f0e-8d57-4778-b9cd-6ba86cf63fbc}, ! Handle
  La Grande Muni Ap Ann Clg .4% Condns WB=>MDB, ! Name
  30.9,                                   ! Maximum Dry-Bulb Temperature {C}
  17.9,                                   ! Daily Dry-Bulb Temperature Range {deltaC}
  18.4,                                   ! Humidity Indicating Conditions at Maximum Dry-Bulb {BasedOnField A3}
  91777,                                  ! Barometric Pressure {Pa}
  3.7,                                    ! Wind Speed {m/s}
  310,                                    ! Wind Direction {deg}
  0,                                      ! Sky Clearness
  0,                                      ! Rain Indicator
  0,                                      ! Snow Indicator
  21,                                     ! Day of Month
  7,                                      ! Month
  SummerDesignDay,                        ! Day Type
  0,                                      ! Daylight Saving Time Indicator
  Wetbulb,                                ! Humidity Indicating Type
  ,                                       ! Humidity Indicating Day Schedule Name
  DefaultMultipliers,                     ! Dry-Bulb Temperature Range Modifier Type
  ,                                       ! Dry-Bulb Temperature Range Modifier Schedule Name
  ASHRAETau,                              ! Solar Model Indicator
  ,                                       ! Beam Solar Day Schedule Name
  ,                                       ! Diffuse Solar Day Schedule Name
  0.366,                                  ! ASHRAE Taub {dimensionless}
  2.357;                                  ! ASHRAE Taud {dimensionless}

OS:ComponentData,
  {1be74005-d736-47bb-8c49-174574994f75}, ! Handle
  Component Data 1,                       ! Name
  {d499a1fc-0c21-429b-b904-d0eb653b30d5}, ! UUID
  {237339ce-fd78-487f-97a8-007259b205c1}, ! Version UUID
  1366310021,                             ! Creation Timestamp
  1366310021,                             ! Version Timestamp
  {c8390f0e-8d57-4778-b9cd-6ba86cf63fbc}; ! Name of Object 1

