
OS:Version,
  {3ad9b9dc-98ac-4712-9741-f9fe0ea8e3ea}, ! Handle
  0.9.3;                                  ! Version Identifier

OS:SizingPeriod:DesignDay,
  {4dbc048f-7c16-44f0-b6f9-8d355d54490a}, ! Handle
  LAKE_CHARLES Ann Clg 1% Condns DB=>MWB, ! Name
  33.6,                                   ! Maximum Dry-Bulb Temperature {C}
  8.6,                                    ! Daily Dry-Bulb Temperature Range {deltaC}
  25.4,                                   ! Humidity Indicating Conditions at Maximum Dry-Bulb {BasedOnField A3}
  101289,                                 ! Barometric Pressure {Pa}
  3.3,                                    ! Wind Speed {m/s}
  230,                                    ! Wind Direction {deg}
  0,                                      ! Sky Clearness
  0,                                      ! Rain Indicator
  0,                                      ! Snow Indicator
  21,                                     ! Day of Month
  7,                                      ! Month
  SummerDesignDay,                        ! Day Type
  0,                                      ! Daylight Saving Time Indicator
  Wetbulb,                                ! Humidity Indicating Type
  ,                                       ! Humidity Indicating Day Schedule Name
  DefaultMultipliers,                     ! Dry-Bulb Temperature Range Modifier Type
  ,                                       ! Dry-Bulb Temperature Range Modifier Schedule Name
  ASHRAETau,                              ! Solar Model Indicator
  ,                                       ! Beam Solar Day Schedule Name
  ,                                       ! Diffuse Solar Day Schedule Name
  0.528,                                  ! ASHRAE Taub {dimensionless}
  1.904;                                  ! ASHRAE Taud {dimensionless}

OS:ComponentData,
  {96f08896-49fc-4edd-8008-c5a5da0ee24d}, ! Handle
  Component Data 1,                       ! Name
  {d5be7907-ba00-40a4-a371-f07f433bcc03}, ! UUID
  {27976898-1c4b-4dd0-b585-7e0c8a91777a}, ! Version UUID
  1366307724,                             ! Creation Timestamp
  1366307724,                             ! Version Timestamp
  {4dbc048f-7c16-44f0-b6f9-8d355d54490a}; ! Name of Object 1

