
OS:Version,
  {9b1bef00-5074-4b60-95c7-fcecdbbd78d5}, ! Handle
  0.9.3;                                  ! Version Identifier

OS:SizingPeriod:DesignDay,
  {9a295eac-be29-4432-9689-dcdef282d3fd}, ! Handle
  Ewa/Barbers Point NAS Ann Hum_n 99.6% Condns DP=>MCDB, ! Name
  18.6,                                   ! Maximum Dry-Bulb Temperature {C}
  0,                                      ! Daily Dry-Bulb Temperature Range {deltaC}
  8.9,                                    ! Humidity Indicating Conditions at Maximum Dry-Bulb {BasedOnField A3}
  101145,                                 ! Barometric Pressure {Pa}
  2.1,                                    ! Wind Speed {m/s}
  40,                                     ! Wind Direction {deg}
  0,                                      ! Sky Clearness
  0,                                      ! Rain Indicator
  0,                                      ! Snow Indicator
  21,                                     ! Day of Month
  1,                                      ! Month
  WinterDesignDay,                        ! Day Type
  0,                                      ! Daylight Saving Time Indicator
  Dewpoint,                               ! Humidity Indicating Type
  ,                                       ! Humidity Indicating Day Schedule Name
  DefaultMultipliers,                     ! Dry-Bulb Temperature Range Modifier Type
  ,                                       ! Dry-Bulb Temperature Range Modifier Schedule Name
  ASHRAEClearSky;                         ! Solar Model Indicator

OS:ComponentData,
  {192b5881-8d92-436a-a6c8-9e20d5deb2c7}, ! Handle
  Component Data 1,                       ! Name
  {dcee56bd-bfa5-4447-b0a8-68bbb5c186e7}, ! UUID
  {6664948f-99a7-4f0d-8220-d086a370fd6a}, ! Version UUID
  1366307070,                             ! Creation Timestamp
  1366307070,                             ! Version Timestamp
  {9a295eac-be29-4432-9689-dcdef282d3fd}; ! Name of Object 1

