
OS:Version,
  {b3e6eb04-267e-487d-9896-b166ebeeea23}, ! Handle
  0.9.3;                                  ! Version Identifier

OS:SizingPeriod:DesignDay,
  {3102a592-8cc2-40d9-9b35-f37fcbd61a32}, ! Handle
  Kingsville Ann Clg 2% Condns WB=>MDB,   ! Name
  31.8,                                   ! Maximum Dry-Bulb Temperature {C}
  10.5,                                   ! Daily Dry-Bulb Temperature Range {deltaC}
  26.7,                                   ! Humidity Indicating Conditions at Maximum Dry-Bulb {BasedOnField A3}
  101121,                                 ! Barometric Pressure {Pa}
  5.4,                                    ! Wind Speed {m/s}
  130,                                    ! Wind Direction {deg}
  0,                                      ! Sky Clearness
  0,                                      ! Rain Indicator
  0,                                      ! Snow Indicator
  21,                                     ! Day of Month
  7,                                      ! Month
  SummerDesignDay,                        ! Day Type
  0,                                      ! Daylight Saving Time Indicator
  Wetbulb,                                ! Humidity Indicating Type
  ,                                       ! Humidity Indicating Day Schedule Name
  DefaultMultipliers,                     ! Dry-Bulb Temperature Range Modifier Type
  ,                                       ! Dry-Bulb Temperature Range Modifier Schedule Name
  ASHRAETau,                              ! Solar Model Indicator
  ,                                       ! Beam Solar Day Schedule Name
  ,                                       ! Diffuse Solar Day Schedule Name
  0.452,                                  ! ASHRAE Taub {dimensionless}
  2.153;                                  ! ASHRAE Taud {dimensionless}

OS:ComponentData,
  {af933ea4-1fd9-4018-97e1-a726e44938cf}, ! Handle
  Component Data 1,                       ! Name
  {15872950-e459-41ae-83f1-b0f587f925ea}, ! UUID
  {b49dd77a-adf4-4666-92c2-2b0d2cbe260d}, ! Version UUID
  1366310776,                             ! Creation Timestamp
  1366310776,                             ! Version Timestamp
  {3102a592-8cc2-40d9-9b35-f37fcbd61a32}; ! Name of Object 1

