
OS:Version,
  {44d292fc-af3e-401e-a707-2679b37a671a}, ! Handle
  0.9.3;                                  ! Version Identifier

OS:SizingPeriod:DesignDay,
  {c96c219e-cd4b-4eff-b39e-82df68d16bce}, ! Handle
  Key West Intl Arpt Ann Clg .4% Condns DP=>MDB, ! Name
  29.6,                                   ! Maximum Dry-Bulb Temperature {C}
  5.1,                                    ! Daily Dry-Bulb Temperature Range {deltaC}
  26.2,                                   ! Humidity Indicating Conditions at Maximum Dry-Bulb {BasedOnField A3}
  101313,                                 ! Barometric Pressure {Pa}
  4,                                      ! Wind Speed {m/s}
  150,                                    ! Wind Direction {deg}
  0,                                      ! Sky Clearness
  0,                                      ! Rain Indicator
  0,                                      ! Snow Indicator
  21,                                     ! Day of Month
  8,                                      ! Month
  SummerDesignDay,                        ! Day Type
  0,                                      ! Daylight Saving Time Indicator
  Dewpoint,                               ! Humidity Indicating Type
  ,                                       ! Humidity Indicating Day Schedule Name
  DefaultMultipliers,                     ! Dry-Bulb Temperature Range Modifier Type
  ,                                       ! Dry-Bulb Temperature Range Modifier Schedule Name
  ASHRAETau,                              ! Solar Model Indicator
  ,                                       ! Beam Solar Day Schedule Name
  ,                                       ! Diffuse Solar Day Schedule Name
  0.461,                                  ! ASHRAE Taub {dimensionless}
  2.194;                                  ! ASHRAE Taud {dimensionless}

OS:ComponentData,
  {4c953daa-5043-4a06-9fc8-a9a84e23e06d}, ! Handle
  Component Data 1,                       ! Name
  {981a7452-a191-4950-a9c9-9fbf9e4b7e20}, ! UUID
  {5f56e1a1-b2c6-4060-944a-a9129bc2e592}, ! Version UUID
  1366306837,                             ! Creation Timestamp
  1366306837,                             ! Version Timestamp
  {c96c219e-cd4b-4eff-b39e-82df68d16bce}; ! Name of Object 1

