
OS:Version,
  {d7c7ca51-ae31-4dd4-bdb8-de5831795823}, ! Handle
  0.9.3;                                  ! Version Identifier

OS:SizingPeriod:DesignDay,
  {0768c775-326d-472c-9d0d-9fd1ecb56806}, ! Handle
  Bradford Regional Ap Ann Clg .4% Condns DB=>MWB, ! Name
  28.5,                                   ! Maximum Dry-Bulb Temperature {C}
  11.9,                                   ! Daily Dry-Bulb Temperature Range {deltaC}
  20.4,                                   ! Humidity Indicating Conditions at Maximum Dry-Bulb {BasedOnField A3}
  93813,                                  ! Barometric Pressure {Pa}
  4.1,                                    ! Wind Speed {m/s}
  270,                                    ! Wind Direction {deg}
  0,                                      ! Sky Clearness
  0,                                      ! Rain Indicator
  0,                                      ! Snow Indicator
  21,                                     ! Day of Month
  7,                                      ! Month
  SummerDesignDay,                        ! Day Type
  0,                                      ! Daylight Saving Time Indicator
  Wetbulb,                                ! Humidity Indicating Type
  ,                                       ! Humidity Indicating Day Schedule Name
  DefaultMultipliers,                     ! Dry-Bulb Temperature Range Modifier Type
  ,                                       ! Dry-Bulb Temperature Range Modifier Schedule Name
  ASHRAETau,                              ! Solar Model Indicator
  ,                                       ! Beam Solar Day Schedule Name
  ,                                       ! Diffuse Solar Day Schedule Name
  0.423,                                  ! ASHRAE Taub {dimensionless}
  2.114;                                  ! ASHRAE Taud {dimensionless}

OS:ComponentData,
  {d97a8c00-9b7b-4324-a435-b8be81ea4556}, ! Handle
  Component Data 1,                       ! Name
  {c006f50d-3865-4ee8-9233-9d7d30b00735}, ! UUID
  {3738a3f1-531b-4be9-aeef-f3a8a3e057b0}, ! Version UUID
  1366310149,                             ! Creation Timestamp
  1366310149,                             ! Version Timestamp
  {0768c775-326d-472c-9d0d-9fd1ecb56806}; ! Name of Object 1

