
OS:Version,
  {0f113e1e-7329-41e3-90c3-50e13abff249}, ! Handle
  0.9.3;                                  ! Version Identifier

OS:SizingPeriod:DesignDay,
  {4dbe3a23-b0d3-4dd8-92ae-9a33ad3e5f0c}, ! Handle
  Fort Drum Wheeler S Ann Hum_n 99% Condns DP=>MCDB, ! Name
  -20.4,                                  ! Maximum Dry-Bulb Temperature {C}
  0,                                      ! Daily Dry-Bulb Temperature Range {deltaC}
  -23.2,                                  ! Humidity Indicating Conditions at Maximum Dry-Bulb {BasedOnField A3}
  98816,                                  ! Barometric Pressure {Pa}
  3.1,                                    ! Wind Speed {m/s}
  130,                                    ! Wind Direction {deg}
  0,                                      ! Sky Clearness
  0,                                      ! Rain Indicator
  0,                                      ! Snow Indicator
  21,                                     ! Day of Month
  1,                                      ! Month
  WinterDesignDay,                        ! Day Type
  0,                                      ! Daylight Saving Time Indicator
  Dewpoint,                               ! Humidity Indicating Type
  ,                                       ! Humidity Indicating Day Schedule Name
  DefaultMultipliers,                     ! Dry-Bulb Temperature Range Modifier Type
  ,                                       ! Dry-Bulb Temperature Range Modifier Schedule Name
  ASHRAEClearSky;                         ! Solar Model Indicator

OS:ComponentData,
  {8d736f0f-6bda-48b3-bf8f-a5359eb28c9a}, ! Handle
  Component Data 1,                       ! Name
  {222b5516-1c13-419a-b077-5eade8628b4b}, ! UUID
  {2567932f-1161-43ee-952c-bc2b1cbe2f2e}, ! Version UUID
  1366309621,                             ! Creation Timestamp
  1366309621,                             ! Version Timestamp
  {4dbe3a23-b0d3-4dd8-92ae-9a33ad3e5f0c}; ! Name of Object 1

