
OS:Version,
  {f80c7b5d-5077-4991-aeeb-001e31f29ba4}, ! Handle
  0.9.3;                                  ! Version Identifier

OS:SizingPeriod:DesignDay,
  {d5b8d078-6c91-4dea-a452-7598085699de}, ! Handle
  Barksdale Afb Ann Htg Wind 99% Condns WS=>MCDB, ! Name
  9.5,                                    ! Maximum Dry-Bulb Temperature {C}
  0,                                      ! Daily Dry-Bulb Temperature Range {deltaC}
  9.5,                                    ! Humidity Indicating Conditions at Maximum Dry-Bulb {BasedOnField A3}
  100678,                                 ! Barometric Pressure {Pa}
  9.2,                                    ! Wind Speed {m/s}
  330,                                    ! Wind Direction {deg}
  0,                                      ! Sky Clearness
  0,                                      ! Rain Indicator
  0,                                      ! Snow Indicator
  21,                                     ! Day of Month
  1,                                      ! Month
  WinterDesignDay,                        ! Day Type
  0,                                      ! Daylight Saving Time Indicator
  Wetbulb,                                ! Humidity Indicating Type
  ,                                       ! Humidity Indicating Day Schedule Name
  DefaultMultipliers,                     ! Dry-Bulb Temperature Range Modifier Type
  ,                                       ! Dry-Bulb Temperature Range Modifier Schedule Name
  ASHRAEClearSky;                         ! Solar Model Indicator

OS:ComponentData,
  {33a72cdb-3d56-4cc2-b616-3f8a50b836d6}, ! Handle
  Component Data 1,                       ! Name
  {9433ec93-81a8-44f0-8bc5-0a4f201adada}, ! UUID
  {3b0eb071-c8ed-43df-89e7-618441c2c65e}, ! Version UUID
  1366307699,                             ! Creation Timestamp
  1366307699,                             ! Version Timestamp
  {d5b8d078-6c91-4dea-a452-7598085699de}; ! Name of Object 1

