
OS:Version,
  {a65fcadd-3344-455c-9753-7ed3f58a457f}, ! Handle
  0.9.3;                                  ! Version Identifier

OS:SizingPeriod:DesignDay,
  {ed92e038-90e8-4f42-aba7-91df900333b5}, ! Handle
  Hartford Brainard Fd Ann Clg 1% Condns Enth=>MDB, ! Name
  28.4,                                   ! Maximum Dry-Bulb Temperature {C}
  9.9,                                    ! Daily Dry-Bulb Temperature Range {deltaC}
  72600,                                  ! Humidity Indicating Conditions at Maximum Dry-Bulb {BasedOnField A3}
  101253,                                 ! Barometric Pressure {Pa}
  4.6,                                    ! Wind Speed {m/s}
  260,                                    ! Wind Direction {deg}
  0,                                      ! Sky Clearness
  0,                                      ! Rain Indicator
  0,                                      ! Snow Indicator
  21,                                     ! Day of Month
  7,                                      ! Month
  SummerDesignDay,                        ! Day Type
  0,                                      ! Daylight Saving Time Indicator
  Enthalpy,                               ! Humidity Indicating Type
  ,                                       ! Humidity Indicating Day Schedule Name
  DefaultMultipliers,                     ! Dry-Bulb Temperature Range Modifier Type
  ,                                       ! Dry-Bulb Temperature Range Modifier Schedule Name
  ASHRAETau,                              ! Solar Model Indicator
  ,                                       ! Beam Solar Day Schedule Name
  ,                                       ! Diffuse Solar Day Schedule Name
  0.496,                                  ! ASHRAE Taub {dimensionless}
  1.916;                                  ! ASHRAE Taud {dimensionless}

OS:ComponentData,
  {ee9725bb-846e-45b9-9833-93e4996e973d}, ! Handle
  Component Data 1,                       ! Name
  {587c0172-5a67-42a2-83ff-5ec2305e960f}, ! UUID
  {5932e4c2-9cce-464f-a6b3-2c45a8574eba}, ! Version UUID
  1366306761,                             ! Creation Timestamp
  1366306761,                             ! Version Timestamp
  {ed92e038-90e8-4f42-aba7-91df900333b5}; ! Name of Object 1

