
OS:Version,
  {b94f3e2b-0086-4028-8de8-71c071c40fec}, ! Handle
  0.9.3;                                  ! Version Identifier

OS:SizingPeriod:DesignDay,
  {4e6c28c8-e13b-4f0b-8ba8-1d59c61ca187}, ! Handle
  Fort Worth/Meacham Fie Ann Hum_n 99.6% Condns DP=>MCDB, ! Name
  -5.7,                                   ! Maximum Dry-Bulb Temperature {C}
  0,                                      ! Daily Dry-Bulb Temperature Range {deltaC}
  -13.6,                                  ! Humidity Indicating Conditions at Maximum Dry-Bulb {BasedOnField A3}
  98757,                                  ! Barometric Pressure {Pa}
  4.4,                                    ! Wind Speed {m/s}
  0,                                      ! Wind Direction {deg}
  0,                                      ! Sky Clearness
  0,                                      ! Rain Indicator
  0,                                      ! Snow Indicator
  21,                                     ! Day of Month
  1,                                      ! Month
  WinterDesignDay,                        ! Day Type
  0,                                      ! Daylight Saving Time Indicator
  Dewpoint,                               ! Humidity Indicating Type
  ,                                       ! Humidity Indicating Day Schedule Name
  DefaultMultipliers,                     ! Dry-Bulb Temperature Range Modifier Type
  ,                                       ! Dry-Bulb Temperature Range Modifier Schedule Name
  ASHRAEClearSky;                         ! Solar Model Indicator

OS:ComponentData,
  {5dbcd8a7-ea2b-4375-9d43-28e6412df8e0}, ! Handle
  Component Data 1,                       ! Name
  {936fac36-d2b1-4411-a408-b86a24ec348c}, ! UUID
  {c0151217-6652-4a40-954c-4bf8573605ca}, ! Version UUID
  1366310705,                             ! Creation Timestamp
  1366310705,                             ! Version Timestamp
  {4e6c28c8-e13b-4f0b-8ba8-1d59c61ca187}; ! Name of Object 1

