
OS:Version,
  {47c70b7b-cff2-45fa-91aa-7d8e8146d16c}, ! Handle
  0.9.3;                                  ! Version Identifier

OS:SizingPeriod:DesignDay,
  {8f399840-4b58-4cb3-ae98-09e8d0750501}, ! Handle
  Ironwood  Awos Ann Clg .4% Condns WB=>MDB, ! Name
  28.7,                                   ! Maximum Dry-Bulb Temperature {C}
  11.7,                                   ! Daily Dry-Bulb Temperature Range {deltaC}
  22.5,                                   ! Humidity Indicating Conditions at Maximum Dry-Bulb {BasedOnField A3}
  96900,                                  ! Barometric Pressure {Pa}
  4.7,                                    ! Wind Speed {m/s}
  200,                                    ! Wind Direction {deg}
  0,                                      ! Sky Clearness
  0,                                      ! Rain Indicator
  0,                                      ! Snow Indicator
  21,                                     ! Day of Month
  7,                                      ! Month
  SummerDesignDay,                        ! Day Type
  0,                                      ! Daylight Saving Time Indicator
  Wetbulb,                                ! Humidity Indicating Type
  ,                                       ! Humidity Indicating Day Schedule Name
  DefaultMultipliers,                     ! Dry-Bulb Temperature Range Modifier Type
  ,                                       ! Dry-Bulb Temperature Range Modifier Schedule Name
  ASHRAETau,                              ! Solar Model Indicator
  ,                                       ! Beam Solar Day Schedule Name
  ,                                       ! Diffuse Solar Day Schedule Name
  0.402,                                  ! ASHRAE Taub {dimensionless}
  2.215;                                  ! ASHRAE Taud {dimensionless}

OS:ComponentData,
  {dfc23512-3d47-4683-87d1-0195957419a1}, ! Handle
  Component Data 1,                       ! Name
  {ecc20435-5a4e-432d-880d-8913cd1a2bb9}, ! UUID
  {9d8aa175-8c88-4065-8f7d-e0a020525e45}, ! Version UUID
  1366308041,                             ! Creation Timestamp
  1366308041,                             ! Version Timestamp
  {8f399840-4b58-4cb3-ae98-09e8d0750501}; ! Name of Object 1

