
OS:Version,
  {85dfe389-2823-40be-9c67-cfaa48111fb1}, ! Handle
  0.9.3;                                  ! Version Identifier

OS:SizingPeriod:DesignDay,
  {58dcde86-fd18-483a-bedd-d6c51ce1b0d9}, ! Handle
  Lihue Airport Ann Clg .4% Condns Enth=>MDB, ! Name
  28.2,                                   ! Maximum Dry-Bulb Temperature {C}
  4.8,                                    ! Daily Dry-Bulb Temperature Range {deltaC}
  76400,                                  ! Humidity Indicating Conditions at Maximum Dry-Bulb {BasedOnField A3}
  100953,                                 ! Barometric Pressure {Pa}
  6.4,                                    ! Wind Speed {m/s}
  60,                                     ! Wind Direction {deg}
  0,                                      ! Sky Clearness
  0,                                      ! Rain Indicator
  0,                                      ! Snow Indicator
  21,                                     ! Day of Month
  8,                                      ! Month
  SummerDesignDay,                        ! Day Type
  0,                                      ! Daylight Saving Time Indicator
  Enthalpy,                               ! Humidity Indicating Type
  ,                                       ! Humidity Indicating Day Schedule Name
  DefaultMultipliers,                     ! Dry-Bulb Temperature Range Modifier Type
  ,                                       ! Dry-Bulb Temperature Range Modifier Schedule Name
  ASHRAETau,                              ! Solar Model Indicator
  ,                                       ! Beam Solar Day Schedule Name
  ,                                       ! Diffuse Solar Day Schedule Name
  0.385,                                  ! ASHRAE Taub {dimensionless}
  2.509;                                  ! ASHRAE Taud {dimensionless}

OS:ComponentData,
  {af0d2b9e-8fae-496a-8a12-d6dc8e5c73f3}, ! Handle
  Component Data 1,                       ! Name
  {213c7392-938a-482f-87a5-c98cb1488a50}, ! UUID
  {1ea72a64-504a-4bc1-b3af-bebe107dc8b9}, ! Version UUID
  1366307121,                             ! Creation Timestamp
  1366307121,                             ! Version Timestamp
  {58dcde86-fd18-483a-bedd-d6c51ce1b0d9}; ! Name of Object 1

