
OS:Version,
  {4c490a89-2660-47dc-88a9-6b1386ed5c2f}, ! Handle
  0.9.3;                                  ! Version Identifier

OS:SizingPeriod:DesignDay,
  {0753164b-8f83-4a5a-ae4c-812cc37bb017}, ! Handle
  Hayden Yampa  Awos Ann Htg 99.6% Condns DB, ! Name
  -19.1,                                  ! Maximum Dry-Bulb Temperature {C}
  0,                                      ! Daily Dry-Bulb Temperature Range {deltaC}
  -19.1,                                  ! Humidity Indicating Conditions at Maximum Dry-Bulb {BasedOnField A3}
  79377,                                  ! Barometric Pressure {Pa}
  3,                                      ! Wind Speed {m/s}
  110,                                    ! Wind Direction {deg}
  0,                                      ! Sky Clearness
  0,                                      ! Rain Indicator
  0,                                      ! Snow Indicator
  21,                                     ! Day of Month
  12,                                     ! Month
  WinterDesignDay,                        ! Day Type
  0,                                      ! Daylight Saving Time Indicator
  Wetbulb,                                ! Humidity Indicating Type
  ,                                       ! Humidity Indicating Day Schedule Name
  DefaultMultipliers,                     ! Dry-Bulb Temperature Range Modifier Type
  ,                                       ! Dry-Bulb Temperature Range Modifier Schedule Name
  ASHRAEClearSky;                         ! Solar Model Indicator

OS:ComponentData,
  {2ae7ff1e-48ab-43a9-813f-4de6d03678bb}, ! Handle
  Component Data 1,                       ! Name
  {28906d16-d407-4f42-a7d2-c0fd7a9c59fd}, ! UUID
  {80565d3a-cf3b-4db8-8edc-1c479898484d}, ! Version UUID
  1366306711,                             ! Creation Timestamp
  1366306711,                             ! Version Timestamp
  {0753164b-8f83-4a5a-ae4c-812cc37bb017}; ! Name of Object 1

