
OS:Version,
  {3dff450d-8ccc-412d-81b7-b6c18c03471f}, ! Handle
  0.9.3;                                  ! Version Identifier

OS:SizingPeriod:DesignDay,
  {b2be6622-96b2-4714-b82c-e47e936a91d3}, ! Handle
  Houston William P Hobby Ap Ann Clg .4% Condns DP=>MDB, ! Name
  28.6,                                   ! Maximum Dry-Bulb Temperature {C}
  9,                                      ! Daily Dry-Bulb Temperature Range {deltaC}
  26,                                     ! Humidity Indicating Conditions at Maximum Dry-Bulb {BasedOnField A3}
  101169,                                 ! Barometric Pressure {Pa}
  3.5,                                    ! Wind Speed {m/s}
  180,                                    ! Wind Direction {deg}
  0,                                      ! Sky Clearness
  0,                                      ! Rain Indicator
  0,                                      ! Snow Indicator
  21,                                     ! Day of Month
  8,                                      ! Month
  SummerDesignDay,                        ! Day Type
  0,                                      ! Daylight Saving Time Indicator
  Dewpoint,                               ! Humidity Indicating Type
  ,                                       ! Humidity Indicating Day Schedule Name
  DefaultMultipliers,                     ! Dry-Bulb Temperature Range Modifier Type
  ,                                       ! Dry-Bulb Temperature Range Modifier Schedule Name
  ASHRAETau,                              ! Solar Model Indicator
  ,                                       ! Beam Solar Day Schedule Name
  ,                                       ! Diffuse Solar Day Schedule Name
  0.507,                                  ! ASHRAE Taub {dimensionless}
  1.944;                                  ! ASHRAE Taud {dimensionless}

OS:ComponentData,
  {aab3fa6b-b0e3-4d3b-9cac-3fc387a16394}, ! Handle
  Component Data 1,                       ! Name
  {2d5c400b-d74c-471a-8ad1-b05d0488b82b}, ! UUID
  {321a4800-e44f-496b-bed7-906c8eba0845}, ! Version UUID
  1366310760,                             ! Creation Timestamp
  1366310760,                             ! Version Timestamp
  {b2be6622-96b2-4714-b82c-e47e936a91d3}; ! Name of Object 1

