
OS:Version,
  {edb0dd63-5d08-4af0-ba0d-7d0b4fa18adf}, ! Handle
  0.9.3;                                  ! Version Identifier

OS:SizingPeriod:DesignDay,
  {5053a277-9d87-4549-b608-60921ae56e29}, ! Handle
  Faribault Muni Awos Ann Clg 2% Condns DB=>MWB, ! Name
  28.7,                                   ! Maximum Dry-Bulb Temperature {C}
  10.9,                                   ! Daily Dry-Bulb Temperature Range {deltaC}
  21.9,                                   ! Humidity Indicating Conditions at Maximum Dry-Bulb {BasedOnField A3}
  97516,                                  ! Barometric Pressure {Pa}
  4.9,                                    ! Wind Speed {m/s}
  200,                                    ! Wind Direction {deg}
  0,                                      ! Sky Clearness
  0,                                      ! Rain Indicator
  0,                                      ! Snow Indicator
  21,                                     ! Day of Month
  7,                                      ! Month
  SummerDesignDay,                        ! Day Type
  0,                                      ! Daylight Saving Time Indicator
  Wetbulb,                                ! Humidity Indicating Type
  ,                                       ! Humidity Indicating Day Schedule Name
  DefaultMultipliers,                     ! Dry-Bulb Temperature Range Modifier Type
  ,                                       ! Dry-Bulb Temperature Range Modifier Schedule Name
  ASHRAETau,                              ! Solar Model Indicator
  ,                                       ! Beam Solar Day Schedule Name
  ,                                       ! Diffuse Solar Day Schedule Name
  0.414,                                  ! ASHRAE Taub {dimensionless}
  2.19;                                   ! ASHRAE Taud {dimensionless}

OS:ComponentData,
  {c6d0f85b-19d7-4980-8bd3-47ea541ec21f}, ! Handle
  Component Data 1,                       ! Name
  {b7ecf521-fbe9-414e-91ba-02afe96c486b}, ! UUID
  {da5286fe-2315-49ce-9eb5-81c2cf966801}, ! Version UUID
  1366308229,                             ! Creation Timestamp
  1366308229,                             ! Version Timestamp
  {5053a277-9d87-4549-b608-60921ae56e29}; ! Name of Object 1

