
OS:Version,
  {2d2217ca-bbd2-41b1-a287-f94e79c3480d}, ! Handle
  0.9.3;                                  ! Version Identifier

OS:SizingPeriod:DesignDay,
  {d93c3c23-9dad-459c-a7b5-e2a5aff54893}, ! Handle
  Alexandria Esler Regional Ap Ann Clg .4% Condns DB=>MWB, ! Name
  36.3,                                   ! Maximum Dry-Bulb Temperature {C}
  11.3,                                   ! Daily Dry-Bulb Temperature Range {deltaC}
  24.9,                                   ! Humidity Indicating Conditions at Maximum Dry-Bulb {BasedOnField A3}
  100917,                                 ! Barometric Pressure {Pa}
  3,                                      ! Wind Speed {m/s}
  60,                                     ! Wind Direction {deg}
  0,                                      ! Sky Clearness
  0,                                      ! Rain Indicator
  0,                                      ! Snow Indicator
  21,                                     ! Day of Month
  7,                                      ! Month
  SummerDesignDay,                        ! Day Type
  0,                                      ! Daylight Saving Time Indicator
  Wetbulb,                                ! Humidity Indicating Type
  ,                                       ! Humidity Indicating Day Schedule Name
  DefaultMultipliers,                     ! Dry-Bulb Temperature Range Modifier Type
  ,                                       ! Dry-Bulb Temperature Range Modifier Schedule Name
  ASHRAETau,                              ! Solar Model Indicator
  ,                                       ! Beam Solar Day Schedule Name
  ,                                       ! Diffuse Solar Day Schedule Name
  0.519,                                  ! ASHRAE Taub {dimensionless}
  1.913;                                  ! ASHRAE Taud {dimensionless}

OS:ComponentData,
  {ac3b6347-a7cb-402d-9172-7328a0a169b7}, ! Handle
  Component Data 1,                       ! Name
  {bbf18a23-7bee-4f5a-ba7e-ef79ce851a4f}, ! UUID
  {ee3c991a-75ee-475e-8552-02a9e0691bad}, ! Version UUID
  1366307695,                             ! Creation Timestamp
  1366307695,                             ! Version Timestamp
  {d93c3c23-9dad-459c-a7b5-e2a5aff54893}; ! Name of Object 1

