
OS:Version,
  {46f75b5b-71e8-44ed-85be-937f3cb2e38d}, ! Handle
  0.9.3;                                  ! Version Identifier

OS:SizingPeriod:DesignDay,
  {23f3ca01-59ea-4219-a48b-230eff6e9a6b}, ! Handle
  Green Bay Austin Straubel Int Ann Clg .4% Condns WB=>MDB, ! Name
  29.4,                                   ! Maximum Dry-Bulb Temperature {C}
  11.3,                                   ! Daily Dry-Bulb Temperature Range {deltaC}
  24.7,                                   ! Humidity Indicating Conditions at Maximum Dry-Bulb {BasedOnField A3}
  98839,                                  ! Barometric Pressure {Pa}
  5.1,                                    ! Wind Speed {m/s}
  200,                                    ! Wind Direction {deg}
  0,                                      ! Sky Clearness
  0,                                      ! Rain Indicator
  0,                                      ! Snow Indicator
  21,                                     ! Day of Month
  7,                                      ! Month
  SummerDesignDay,                        ! Day Type
  0,                                      ! Daylight Saving Time Indicator
  Wetbulb,                                ! Humidity Indicating Type
  ,                                       ! Humidity Indicating Day Schedule Name
  DefaultMultipliers,                     ! Dry-Bulb Temperature Range Modifier Type
  ,                                       ! Dry-Bulb Temperature Range Modifier Schedule Name
  ASHRAETau,                              ! Solar Model Indicator
  ,                                       ! Beam Solar Day Schedule Name
  ,                                       ! Diffuse Solar Day Schedule Name
  0.432,                                  ! ASHRAE Taub {dimensionless}
  2.118;                                  ! ASHRAE Taud {dimensionless}

OS:ComponentData,
  {57179411-ecf7-4d39-8c99-8057d09a256a}, ! Handle
  Component Data 1,                       ! Name
  {d5115cab-9e70-4478-bc48-ee3d0139ba82}, ! UUID
  {31d7ccc0-d7a4-4f27-8a16-d2dfa655f10d}, ! Version UUID
  1366311490,                             ! Creation Timestamp
  1366311490,                             ! Version Timestamp
  {23f3ca01-59ea-4219-a48b-230eff6e9a6b}; ! Name of Object 1

