
OS:Version,
  {7869e994-a71e-4c06-8908-4cc20d994332}, ! Handle
  0.9.3;                                  ! Version Identifier

OS:SizingPeriod:DesignDay,
  {165b8fb6-a627-4b5e-aea4-fdcf7fdaab0d}, ! Handle
  Holloman Afb Ann Clg 1% Condns DB=>MWB, ! Name
  35.9,                                   ! Maximum Dry-Bulb Temperature {C}
  14.5,                                   ! Daily Dry-Bulb Temperature Range {deltaC}
  17.2,                                   ! Humidity Indicating Conditions at Maximum Dry-Bulb {BasedOnField A3}
  87204,                                  ! Barometric Pressure {Pa}
  4.2,                                    ! Wind Speed {m/s}
  250,                                    ! Wind Direction {deg}
  0,                                      ! Sky Clearness
  0,                                      ! Rain Indicator
  0,                                      ! Snow Indicator
  21,                                     ! Day of Month
  7,                                      ! Month
  SummerDesignDay,                        ! Day Type
  0,                                      ! Daylight Saving Time Indicator
  Wetbulb,                                ! Humidity Indicating Type
  ,                                       ! Humidity Indicating Day Schedule Name
  DefaultMultipliers,                     ! Dry-Bulb Temperature Range Modifier Type
  ,                                       ! Dry-Bulb Temperature Range Modifier Schedule Name
  ASHRAETau,                              ! Solar Model Indicator
  ,                                       ! Beam Solar Day Schedule Name
  ,                                       ! Diffuse Solar Day Schedule Name
  0.514,                                  ! ASHRAE Taub {dimensionless}
  1.765;                                  ! ASHRAE Taud {dimensionless}

OS:ComponentData,
  {1308d24f-9781-4626-86ae-91078db1f5f7}, ! Handle
  Component Data 1,                       ! Name
  {04df4a91-95b1-4939-b383-912a98f09751}, ! UUID
  {a37cd3a6-30a5-4a32-bb0f-1660493bbd40}, ! Version UUID
  1366309413,                             ! Creation Timestamp
  1366309413,                             ! Version Timestamp
  {165b8fb6-a627-4b5e-aea4-fdcf7fdaab0d}; ! Name of Object 1

