
OS:Version,
  {97654bb9-ee58-4d6a-be42-28bf6b8de72a}, ! Handle
  0.9.3;                                  ! Version Identifier

OS:SizingPeriod:DesignDay,
  {a6ef9a2b-83ce-4b40-887a-10e5237da7e2}, ! Handle
  Houston Bush Intercontinental Ann Clg 2% Condns DB=>MWB, ! Name
  34,                                     ! Maximum Dry-Bulb Temperature {C}
  10.1,                                   ! Daily Dry-Bulb Temperature Range {deltaC}
  24.8,                                   ! Humidity Indicating Conditions at Maximum Dry-Bulb {BasedOnField A3}
  100977,                                 ! Barometric Pressure {Pa}
  3.5,                                    ! Wind Speed {m/s}
  170,                                    ! Wind Direction {deg}
  0,                                      ! Sky Clearness
  0,                                      ! Rain Indicator
  0,                                      ! Snow Indicator
  21,                                     ! Day of Month
  7,                                      ! Month
  SummerDesignDay,                        ! Day Type
  0,                                      ! Daylight Saving Time Indicator
  Wetbulb,                                ! Humidity Indicating Type
  ,                                       ! Humidity Indicating Day Schedule Name
  DefaultMultipliers,                     ! Dry-Bulb Temperature Range Modifier Type
  ,                                       ! Dry-Bulb Temperature Range Modifier Schedule Name
  ASHRAETau,                              ! Solar Model Indicator
  ,                                       ! Beam Solar Day Schedule Name
  ,                                       ! Diffuse Solar Day Schedule Name
  0.499,                                  ! ASHRAE Taub {dimensionless}
  1.97;                                   ! ASHRAE Taud {dimensionless}

OS:ComponentData,
  {2deb9188-6e20-444a-8319-1698adbf75d3}, ! Handle
  Component Data 1,                       ! Name
  {515a86b5-0efe-4c9e-823b-d7aad069a411}, ! UUID
  {682ac053-9feb-4a9c-80fa-b4c72aab7627}, ! Version UUID
  1366310743,                             ! Creation Timestamp
  1366310743,                             ! Version Timestamp
  {a6ef9a2b-83ce-4b40-887a-10e5237da7e2}; ! Name of Object 1

