
OS:Version,
  {20b15818-2e3e-4723-8cb8-84cc5defafe5}, ! Handle
  0.9.3;                                  ! Version Identifier

OS:SizingPeriod:DesignDay,
  {0c549670-8881-422c-9fb8-ed3483d76913}, ! Handle
  Kingsville Ann Clg .4% Condns WB=>MDB,  ! Name
  32.9,                                   ! Maximum Dry-Bulb Temperature {C}
  10.5,                                   ! Daily Dry-Bulb Temperature Range {deltaC}
  27.6,                                   ! Humidity Indicating Conditions at Maximum Dry-Bulb {BasedOnField A3}
  101121,                                 ! Barometric Pressure {Pa}
  5.4,                                    ! Wind Speed {m/s}
  130,                                    ! Wind Direction {deg}
  0,                                      ! Sky Clearness
  0,                                      ! Rain Indicator
  0,                                      ! Snow Indicator
  21,                                     ! Day of Month
  7,                                      ! Month
  SummerDesignDay,                        ! Day Type
  0,                                      ! Daylight Saving Time Indicator
  Wetbulb,                                ! Humidity Indicating Type
  ,                                       ! Humidity Indicating Day Schedule Name
  DefaultMultipliers,                     ! Dry-Bulb Temperature Range Modifier Type
  ,                                       ! Dry-Bulb Temperature Range Modifier Schedule Name
  ASHRAETau,                              ! Solar Model Indicator
  ,                                       ! Beam Solar Day Schedule Name
  ,                                       ! Diffuse Solar Day Schedule Name
  0.452,                                  ! ASHRAE Taub {dimensionless}
  2.153;                                  ! ASHRAE Taud {dimensionless}

OS:ComponentData,
  {cd3a4a08-60db-45df-b6a3-f1924d20ebb4}, ! Handle
  Component Data 1,                       ! Name
  {83efdfbb-9eca-46c5-b734-5969e87aabc9}, ! UUID
  {ac445145-3cd0-415e-9779-e49615e67f3b}, ! Version UUID
  1366310776,                             ! Creation Timestamp
  1366310776,                             ! Version Timestamp
  {0c549670-8881-422c-9fb8-ed3483d76913}; ! Name of Object 1

