
OS:Version,
  {1749f228-dc70-412e-ae51-286fb20961e4}, ! Handle
  0.9.3;                                  ! Version Identifier

OS:SizingPeriod:DesignDay,
  {06c247e9-1d9f-4d04-9cd6-529a6eb5beda}, ! Handle
  CAPE_HATTERAS Ann Clg 2% Condns DP=>MDB, ! Name
  27.4,                                   ! Maximum Dry-Bulb Temperature {C}
  4.4,                                    ! Daily Dry-Bulb Temperature Range {deltaC}
  25.3,                                   ! Humidity Indicating Conditions at Maximum Dry-Bulb {BasedOnField A3}
  101301,                                 ! Barometric Pressure {Pa}
  4.4,                                    ! Wind Speed {m/s}
  0,                                      ! Wind Direction {deg}
  0,                                      ! Sky Clearness
  0,                                      ! Rain Indicator
  0,                                      ! Snow Indicator
  21,                                     ! Day of Month
  7,                                      ! Month
  SummerDesignDay,                        ! Day Type
  0,                                      ! Daylight Saving Time Indicator
  Dewpoint,                               ! Humidity Indicating Type
  ,                                       ! Humidity Indicating Day Schedule Name
  DefaultMultipliers,                     ! Dry-Bulb Temperature Range Modifier Type
  ,                                       ! Dry-Bulb Temperature Range Modifier Schedule Name
  ASHRAETau,                              ! Solar Model Indicator
  ,                                       ! Beam Solar Day Schedule Name
  ,                                       ! Diffuse Solar Day Schedule Name
  0.57,                                   ! ASHRAE Taub {dimensionless}
  1.801;                                  ! ASHRAE Taud {dimensionless}

OS:ComponentData,
  {fd33ce0a-af5b-4608-8314-4eba30360790}, ! Handle
  Component Data 1,                       ! Name
  {af8d2dc5-342f-4f6e-90ff-0be58c6ddb84}, ! UUID
  {355afb5a-1300-4865-96b7-3edfcbfdec60}, ! Version UUID
  1366308877,                             ! Creation Timestamp
  1366308877,                             ! Version Timestamp
  {06c247e9-1d9f-4d04-9cd6-529a6eb5beda}; ! Name of Object 1

