
OS:Version,
  {eb401f96-7204-4c97-b2e6-cca6c34d017c}, ! Handle
  0.9.3;                                  ! Version Identifier

OS:SizingPeriod:DesignDay,
  {404a559f-305c-498e-ab39-b8526ae29510}, ! Handle
  Beatrice Municipal Ann Clg .4% Condns WB=>MDB, ! Name
  32.9,                                   ! Maximum Dry-Bulb Temperature {C}
  11.3,                                   ! Daily Dry-Bulb Temperature Range {deltaC}
  25.4,                                   ! Humidity Indicating Conditions at Maximum Dry-Bulb {BasedOnField A3}
  96576,                                  ! Barometric Pressure {Pa}
  5.9,                                    ! Wind Speed {m/s}
  190,                                    ! Wind Direction {deg}
  0,                                      ! Sky Clearness
  0,                                      ! Rain Indicator
  0,                                      ! Snow Indicator
  21,                                     ! Day of Month
  7,                                      ! Month
  SummerDesignDay,                        ! Day Type
  0,                                      ! Daylight Saving Time Indicator
  Wetbulb,                                ! Humidity Indicating Type
  ,                                       ! Humidity Indicating Day Schedule Name
  DefaultMultipliers,                     ! Dry-Bulb Temperature Range Modifier Type
  ,                                       ! Dry-Bulb Temperature Range Modifier Schedule Name
  ASHRAETau,                              ! Solar Model Indicator
  ,                                       ! Beam Solar Day Schedule Name
  ,                                       ! Diffuse Solar Day Schedule Name
  0.411,                                  ! ASHRAE Taub {dimensionless}
  2.232;                                  ! ASHRAE Taud {dimensionless}

OS:ComponentData,
  {e8d8ca13-8544-41af-a936-2f4d0c701e69}, ! Handle
  Component Data 1,                       ! Name
  {5c6c8bcd-7022-46e1-989b-a357a318ec80}, ! UUID
  {ff1dedc2-1269-4126-ac73-74b10e5d739c}, ! Version UUID
  1366309086,                             ! Creation Timestamp
  1366309086,                             ! Version Timestamp
  {404a559f-305c-498e-ab39-b8526ae29510}; ! Name of Object 1

