
OS:Version,
  {8e14d2eb-a2fb-4c47-8ba8-b963fd1f5da4}, ! Handle
  0.9.3;                                  ! Version Identifier

OS:SizingPeriod:DesignDay,
  {981b56b0-d11a-4622-b83e-537338a52998}, ! Handle
  Gulkana Intermediate Field Ann Htg Wind 99.6% Condns WS=>MCDB, ! Name
  -1.3,                                   ! Maximum Dry-Bulb Temperature {C}
  0,                                      ! Daily Dry-Bulb Temperature Range {deltaC}
  -1.3,                                   ! Humidity Indicating Conditions at Maximum Dry-Bulb {BasedOnField A3}
  95713,                                  ! Barometric Pressure {Pa}
  11.4,                                   ! Wind Speed {m/s}
  330,                                    ! Wind Direction {deg}
  0,                                      ! Sky Clearness
  0,                                      ! Rain Indicator
  0,                                      ! Snow Indicator
  21,                                     ! Day of Month
  1,                                      ! Month
  WinterDesignDay,                        ! Day Type
  0,                                      ! Daylight Saving Time Indicator
  Wetbulb,                                ! Humidity Indicating Type
  ,                                       ! Humidity Indicating Day Schedule Name
  DefaultMultipliers,                     ! Dry-Bulb Temperature Range Modifier Type
  ,                                       ! Dry-Bulb Temperature Range Modifier Schedule Name
  ASHRAEClearSky;                         ! Solar Model Indicator

OS:ComponentData,
  {1f38428b-5e17-412a-8995-c25122efa011}, ! Handle
  Component Data 1,                       ! Name
  {d54c3fec-96b7-4296-97da-87f922cb94c8}, ! UUID
  {c69701a7-e3c9-42ea-a12d-ae31a6d603ac}, ! Version UUID
  1366305293,                             ! Creation Timestamp
  1366305293,                             ! Version Timestamp
  {981b56b0-d11a-4622-b83e-537338a52998}; ! Name of Object 1

