
OS:Version,
  {7a74c597-4984-4921-a0c2-1286257f3758}, ! Handle
  0.9.3;                                  ! Version Identifier

OS:SizingPeriod:DesignDay,
  {b03e8fed-1862-4c3a-a4aa-fe74aa710b07}, ! Handle
  DAYTONA_BEACH Ann Clg 1% Condns Enth=>MDB, ! Name
  30.6,                                   ! Maximum Dry-Bulb Temperature {C}
  9,                                      ! Daily Dry-Bulb Temperature Range {deltaC}
  80800,                                  ! Humidity Indicating Conditions at Maximum Dry-Bulb {BasedOnField A3}
  101181,                                 ! Barometric Pressure {Pa}
  4.4,                                    ! Wind Speed {m/s}
  230,                                    ! Wind Direction {deg}
  0,                                      ! Sky Clearness
  0,                                      ! Rain Indicator
  0,                                      ! Snow Indicator
  21,                                     ! Day of Month
  7,                                      ! Month
  SummerDesignDay,                        ! Day Type
  0,                                      ! Daylight Saving Time Indicator
  Enthalpy,                               ! Humidity Indicating Type
  ,                                       ! Humidity Indicating Day Schedule Name
  DefaultMultipliers,                     ! Dry-Bulb Temperature Range Modifier Type
  ,                                       ! Dry-Bulb Temperature Range Modifier Schedule Name
  ASHRAETau,                              ! Solar Model Indicator
  ,                                       ! Beam Solar Day Schedule Name
  ,                                       ! Diffuse Solar Day Schedule Name
  0.512,                                  ! ASHRAE Taub {dimensionless}
  1.951;                                  ! ASHRAE Taud {dimensionless}

OS:ComponentData,
  {763bac8c-2ab7-4335-b989-87f2c3fc0532}, ! Handle
  Component Data 1,                       ! Name
  {6c881770-ecc1-43d5-bc42-dc3a47a226e3}, ! UUID
  {d155c94e-bd13-4be2-8ea2-7254174b2abb}, ! Version UUID
  1366306788,                             ! Creation Timestamp
  1366306788,                             ! Version Timestamp
  {b03e8fed-1862-4c3a-a4aa-fe74aa710b07}; ! Name of Object 1

