
OS:Version,
  {0288a34e-a8cd-4044-95f7-d0dc94f430cb}, ! Handle
  0.9.3;                                  ! Version Identifier

OS:SizingPeriod:DesignDay,
  {d205be31-1d67-4026-925d-178bce67d8bd}, ! Handle
  Gunnison Co   Awos Ann Htg 99.6% Condns DB, ! Name
  -27.1,                                  ! Maximum Dry-Bulb Temperature {C}
  0,                                      ! Daily Dry-Bulb Temperature Range {deltaC}
  -27.1,                                  ! Humidity Indicating Conditions at Maximum Dry-Bulb {BasedOnField A3}
  76206,                                  ! Barometric Pressure {Pa}
  0.5,                                    ! Wind Speed {m/s}
  70,                                     ! Wind Direction {deg}
  0,                                      ! Sky Clearness
  0,                                      ! Rain Indicator
  0,                                      ! Snow Indicator
  21,                                     ! Day of Month
  1,                                      ! Month
  WinterDesignDay,                        ! Day Type
  0,                                      ! Daylight Saving Time Indicator
  Wetbulb,                                ! Humidity Indicating Type
  ,                                       ! Humidity Indicating Day Schedule Name
  DefaultMultipliers,                     ! Dry-Bulb Temperature Range Modifier Type
  ,                                       ! Dry-Bulb Temperature Range Modifier Schedule Name
  ASHRAEClearSky;                         ! Solar Model Indicator

OS:ComponentData,
  {a1596a02-9b14-4c85-a348-62aae113e0f1}, ! Handle
  Component Data 1,                       ! Name
  {d769dd13-66e5-4727-9693-af6e8b62ed32}, ! UUID
  {6c3e1326-5804-4cb4-9cc2-3e1c62976895}, ! Version UUID
  1366306708,                             ! Creation Timestamp
  1366306708,                             ! Version Timestamp
  {d205be31-1d67-4026-925d-178bce67d8bd}; ! Name of Object 1

