
OS:Version,
  {5c58ff91-4be5-4069-a80a-45167bc31fd1}, ! Handle
  0.9.3;                                  ! Version Identifier

OS:SizingPeriod:DesignDay,
  {d9e10cb7-5b9d-4ac9-8d8c-fe0c0c6bb5e0}, ! Handle
  Lovelock Ann Clg .4% Condns DB=>MWB,    ! Name
  37.3,                                   ! Maximum Dry-Bulb Temperature {C}
  20.2,                                   ! Daily Dry-Bulb Temperature Range {deltaC}
  17,                                     ! Humidity Indicating Conditions at Maximum Dry-Bulb {BasedOnField A3}
  87844,                                  ! Barometric Pressure {Pa}
  4.1,                                    ! Wind Speed {m/s}
  180,                                    ! Wind Direction {deg}
  0,                                      ! Sky Clearness
  0,                                      ! Rain Indicator
  0,                                      ! Snow Indicator
  21,                                     ! Day of Month
  7,                                      ! Month
  SummerDesignDay,                        ! Day Type
  0,                                      ! Daylight Saving Time Indicator
  Wetbulb,                                ! Humidity Indicating Type
  ,                                       ! Humidity Indicating Day Schedule Name
  DefaultMultipliers,                     ! Dry-Bulb Temperature Range Modifier Type
  ,                                       ! Dry-Bulb Temperature Range Modifier Schedule Name
  ASHRAETau,                              ! Solar Model Indicator
  ,                                       ! Beam Solar Day Schedule Name
  ,                                       ! Diffuse Solar Day Schedule Name
  0.427,                                  ! ASHRAE Taub {dimensionless}
  1.948;                                  ! ASHRAE Taud {dimensionless}

OS:ComponentData,
  {c55d0f7b-770c-4420-a929-61bfc030af46}, ! Handle
  Component Data 1,                       ! Name
  {5204d067-b002-450d-a5f2-fb9c5eb065d5}, ! UUID
  {3ad4df4c-4cbf-43fe-bf46-7940e1baf141}, ! Version UUID
  1366309511,                             ! Creation Timestamp
  1366309511,                             ! Version Timestamp
  {d9e10cb7-5b9d-4ac9-8d8c-fe0c0c6bb5e0}; ! Name of Object 1

