
OS:Version,
  {d9718a83-2fa1-46a9-abba-078eca4c3d86}, ! Handle
  0.9.3;                                  ! Version Identifier

OS:SizingPeriod:DesignDay,
  {d33442ea-16f5-42ce-9400-77057e54552f}, ! Handle
  Cut Bank Ann Clg .4% Condns DP=>MDB,    ! Name
  19.5,                                   ! Maximum Dry-Bulb Temperature {C}
  15.1,                                   ! Daily Dry-Bulb Temperature Range {deltaC}
  12.8,                                   ! Humidity Indicating Conditions at Maximum Dry-Bulb {BasedOnField A3}
  87983,                                  ! Barometric Pressure {Pa}
  5.8,                                    ! Wind Speed {m/s}
  260,                                    ! Wind Direction {deg}
  0,                                      ! Sky Clearness
  0,                                      ! Rain Indicator
  0,                                      ! Snow Indicator
  21,                                     ! Day of Month
  7,                                      ! Month
  SummerDesignDay,                        ! Day Type
  0,                                      ! Daylight Saving Time Indicator
  Dewpoint,                               ! Humidity Indicating Type
  ,                                       ! Humidity Indicating Day Schedule Name
  DefaultMultipliers,                     ! Dry-Bulb Temperature Range Modifier Type
  ,                                       ! Dry-Bulb Temperature Range Modifier Schedule Name
  ASHRAETau,                              ! Solar Model Indicator
  ,                                       ! Beam Solar Day Schedule Name
  ,                                       ! Diffuse Solar Day Schedule Name
  0.368,                                  ! ASHRAE Taub {dimensionless}
  2.249;                                  ! ASHRAE Taud {dimensionless}

OS:ComponentData,
  {0e231412-7bd4-4eec-8841-3e34f169b287}, ! Handle
  Component Data 1,                       ! Name
  {63fa6945-6176-497e-93ee-587b689c4ee8}, ! UUID
  {0afaae4b-c804-4dcc-b446-ac76a790fa4b}, ! Version UUID
  1366308741,                             ! Creation Timestamp
  1366308741,                             ! Version Timestamp
  {d33442ea-16f5-42ce-9400-77057e54552f}; ! Name of Object 1

