
OS:Version,
  {4bccb28f-a5dc-4570-be3e-e5a80c1b554e}, ! Handle
  0.9.3;                                  ! Version Identifier

OS:SizingPeriod:DesignDay,
  {f75cde05-5ab5-4ef7-9b24-8ddf04e98dbe}, ! Handle
  HUNTINGTON Ann Clg 2% Condns Enth=>MDB, ! Name
  28.5,                                   ! Maximum Dry-Bulb Temperature {C}
  10.5,                                   ! Daily Dry-Bulb Temperature Range {deltaC}
  72200,                                  ! Humidity Indicating Conditions at Maximum Dry-Bulb {BasedOnField A3}
  98299,                                  ! Barometric Pressure {Pa}
  3.3,                                    ! Wind Speed {m/s}
  260,                                    ! Wind Direction {deg}
  0,                                      ! Sky Clearness
  0,                                      ! Rain Indicator
  0,                                      ! Snow Indicator
  21,                                     ! Day of Month
  7,                                      ! Month
  SummerDesignDay,                        ! Day Type
  0,                                      ! Daylight Saving Time Indicator
  Enthalpy,                               ! Humidity Indicating Type
  ,                                       ! Humidity Indicating Day Schedule Name
  DefaultMultipliers,                     ! Dry-Bulb Temperature Range Modifier Type
  ,                                       ! Dry-Bulb Temperature Range Modifier Schedule Name
  ASHRAETau,                              ! Solar Model Indicator
  ,                                       ! Beam Solar Day Schedule Name
  ,                                       ! Diffuse Solar Day Schedule Name
  0.512,                                  ! ASHRAE Taub {dimensionless}
  1.865;                                  ! ASHRAE Taud {dimensionless}

OS:ComponentData,
  {bbdc073e-b7d3-4b47-9a9c-0b0715323f80}, ! Handle
  Component Data 1,                       ! Name
  {3f84f45b-7908-43f1-b385-efa6e918a11f}, ! UUID
  {7c124347-4d91-437d-9951-b20f7c3a6e63}, ! Version UUID
  1366311660,                             ! Creation Timestamp
  1366311660,                             ! Version Timestamp
  {f75cde05-5ab5-4ef7-9b24-8ddf04e98dbe}; ! Name of Object 1

