
OS:Version,
  {b8adcfc8-ae07-4a32-9c3d-f2c503e7128c}, ! Handle
  0.9.3;                                  ! Version Identifier

OS:SizingPeriod:DesignDay,
  {8e7e1cb2-6630-485c-8307-98b461805399}, ! Handle
  Cody Muni  Awos Ann Htg 99% Condns DB,  ! Name
  -20.8,                                  ! Maximum Dry-Bulb Temperature {C}
  0,                                      ! Daily Dry-Bulb Temperature Range {deltaC}
  -20.8,                                  ! Humidity Indicating Conditions at Maximum Dry-Bulb {BasedOnField A3}
  84007,                                  ! Barometric Pressure {Pa}
  2,                                      ! Wind Speed {m/s}
  30,                                     ! Wind Direction {deg}
  0,                                      ! Sky Clearness
  0,                                      ! Rain Indicator
  0,                                      ! Snow Indicator
  21,                                     ! Day of Month
  12,                                     ! Month
  WinterDesignDay,                        ! Day Type
  0,                                      ! Daylight Saving Time Indicator
  Wetbulb,                                ! Humidity Indicating Type
  ,                                       ! Humidity Indicating Day Schedule Name
  DefaultMultipliers,                     ! Dry-Bulb Temperature Range Modifier Type
  ,                                       ! Dry-Bulb Temperature Range Modifier Schedule Name
  ASHRAEClearSky;                         ! Solar Model Indicator

OS:ComponentData,
  {588ec096-2da0-439b-b66f-8e5e12567162}, ! Handle
  Component Data 1,                       ! Name
  {e4dc9ba7-b237-4951-a9a8-9268d288ba91}, ! UUID
  {a3baf916-9c29-4fed-a911-166c0c484538}, ! Version UUID
  1366311715,                             ! Creation Timestamp
  1366311715,                             ! Version Timestamp
  {8e7e1cb2-6630-485c-8307-98b461805399}; ! Name of Object 1

