
OS:Version,
  {671b617f-f08b-4381-b703-e4e57b1a72dd}, ! Handle
  0.9.3;                                  ! Version Identifier

OS:SizingPeriod:DesignDay,
  {f0154895-6b77-4fbc-b257-ce77e496fef9}, ! Handle
  Columbia Regional Airport Ann Htg Wind 99.6% Condns WS=>MCDB, ! Name
  2,                                      ! Maximum Dry-Bulb Temperature {C}
  0,                                      ! Daily Dry-Bulb Temperature Range {deltaC}
  2,                                      ! Humidity Indicating Conditions at Maximum Dry-Bulb {BasedOnField A3}
  98100,                                  ! Barometric Pressure {Pa}
  12.5,                                   ! Wind Speed {m/s}
  280,                                    ! Wind Direction {deg}
  0,                                      ! Sky Clearness
  0,                                      ! Rain Indicator
  0,                                      ! Snow Indicator
  21,                                     ! Day of Month
  1,                                      ! Month
  WinterDesignDay,                        ! Day Type
  0,                                      ! Daylight Saving Time Indicator
  Wetbulb,                                ! Humidity Indicating Type
  ,                                       ! Humidity Indicating Day Schedule Name
  DefaultMultipliers,                     ! Dry-Bulb Temperature Range Modifier Type
  ,                                       ! Dry-Bulb Temperature Range Modifier Schedule Name
  ASHRAEClearSky;                         ! Solar Model Indicator

OS:ComponentData,
  {9badb8cc-6070-409d-a455-f4357c3c1f33}, ! Handle
  Component Data 1,                       ! Name
  {ab4bf4fe-3790-4711-8511-f319ce1fa86c}, ! UUID
  {858f2218-030a-4ab7-b1e5-6723e3e7b7b6}, ! Version UUID
  1366308491,                             ! Creation Timestamp
  1366308491,                             ! Version Timestamp
  {f0154895-6b77-4fbc-b257-ce77e496fef9}; ! Name of Object 1

