
OS:Version,
  {7477bb1f-9438-4cf7-b861-c7843000e17b}, ! Handle
  0.9.3;                                  ! Version Identifier

OS:SizingPeriod:DesignDay,
  {030c1aa3-5aa7-4bf9-88c2-4eef925a697b}, ! Handle
  Jonesboro Muni Ann Htg 99.6% Condns DB, ! Name
  -10.9,                                  ! Maximum Dry-Bulb Temperature {C}
  0,                                      ! Daily Dry-Bulb Temperature Range {deltaC}
  -10.9,                                  ! Humidity Indicating Conditions at Maximum Dry-Bulb {BasedOnField A3}
  100344,                                 ! Barometric Pressure {Pa}
  3.7,                                    ! Wind Speed {m/s}
  30,                                     ! Wind Direction {deg}
  0,                                      ! Sky Clearness
  0,                                      ! Rain Indicator
  0,                                      ! Snow Indicator
  21,                                     ! Day of Month
  1,                                      ! Month
  WinterDesignDay,                        ! Day Type
  0,                                      ! Daylight Saving Time Indicator
  Wetbulb,                                ! Humidity Indicating Type
  ,                                       ! Humidity Indicating Day Schedule Name
  DefaultMultipliers,                     ! Dry-Bulb Temperature Range Modifier Type
  ,                                       ! Dry-Bulb Temperature Range Modifier Schedule Name
  ASHRAEClearSky;                         ! Solar Model Indicator

OS:ComponentData,
  {1835727a-80b6-4b4a-8994-e5641a31041a}, ! Handle
  Component Data 1,                       ! Name
  {613021a9-77a0-4c74-ad80-a6a98727b80f}, ! UUID
  {c467a82c-e06e-4d9e-b490-ef0024c9e80f}, ! Version UUID
  1366306219,                             ! Creation Timestamp
  1366306219,                             ! Version Timestamp
  {030c1aa3-5aa7-4bf9-88c2-4eef925a697b}; ! Name of Object 1

