
OS:Version,
  {6a05f96f-304d-4f45-92ac-eaf0344eb2a8}, ! Handle
  0.9.3;                                  ! Version Identifier

OS:SizingPeriod:DesignDay,
  {8f10732b-89d4-4416-9b78-aed662a9db36}, ! Handle
  Goodland Ann Clg 2% Condns Enth=>MDB,   ! Name
  29.3,                                   ! Maximum Dry-Bulb Temperature {C}
  15,                                     ! Daily Dry-Bulb Temperature Range {deltaC}
  63700,                                  ! Humidity Indicating Conditions at Maximum Dry-Bulb {BasedOnField A3}
  88531,                                  ! Barometric Pressure {Pa}
  6,                                      ! Wind Speed {m/s}
  160,                                    ! Wind Direction {deg}
  0,                                      ! Sky Clearness
  0,                                      ! Rain Indicator
  0,                                      ! Snow Indicator
  21,                                     ! Day of Month
  7,                                      ! Month
  SummerDesignDay,                        ! Day Type
  0,                                      ! Daylight Saving Time Indicator
  Enthalpy,                               ! Humidity Indicating Type
  ,                                       ! Humidity Indicating Day Schedule Name
  DefaultMultipliers,                     ! Dry-Bulb Temperature Range Modifier Type
  ,                                       ! Dry-Bulb Temperature Range Modifier Schedule Name
  ASHRAETau,                              ! Solar Model Indicator
  ,                                       ! Beam Solar Day Schedule Name
  ,                                       ! Diffuse Solar Day Schedule Name
  0.421,                                  ! ASHRAE Taub {dimensionless}
  2.065;                                  ! ASHRAE Taud {dimensionless}

OS:ComponentData,
  {95ad6f72-ef02-4c4c-af29-11cc10b4f81d}, ! Handle
  Component Data 1,                       ! Name
  {14cc13d6-b1d5-4fbd-96fc-a8cea85954ad}, ! UUID
  {2a6802f1-38c0-4ee5-9ed5-fef4a493f76b}, ! Version UUID
  1366307531,                             ! Creation Timestamp
  1366307531,                             ! Version Timestamp
  {8f10732b-89d4-4416-9b78-aed662a9db36}; ! Name of Object 1

