
OS:Version,
  {469814c7-114f-477f-81e5-6159a7d94920}, ! Handle
  0.9.3;                                  ! Version Identifier

OS:SizingPeriod:DesignDay,
  {681b142f-b47c-4ca5-aa66-a004020625e5}, ! Handle
  Chattanooga Ann Clg 2% Condns DP=>MDB,  ! Name
  26.6,                                   ! Maximum Dry-Bulb Temperature {C}
  10.6,                                   ! Daily Dry-Bulb Temperature Range {deltaC}
  22.8,                                   ! Humidity Indicating Conditions at Maximum Dry-Bulb {BasedOnField A3}
  98828,                                  ! Barometric Pressure {Pa}
  3.2,                                    ! Wind Speed {m/s}
  280,                                    ! Wind Direction {deg}
  0,                                      ! Sky Clearness
  0,                                      ! Rain Indicator
  0,                                      ! Snow Indicator
  21,                                     ! Day of Month
  7,                                      ! Month
  SummerDesignDay,                        ! Day Type
  0,                                      ! Daylight Saving Time Indicator
  Dewpoint,                               ! Humidity Indicating Type
  ,                                       ! Humidity Indicating Day Schedule Name
  DefaultMultipliers,                     ! Dry-Bulb Temperature Range Modifier Type
  ,                                       ! Dry-Bulb Temperature Range Modifier Schedule Name
  ASHRAETau,                              ! Solar Model Indicator
  ,                                       ! Beam Solar Day Schedule Name
  ,                                       ! Diffuse Solar Day Schedule Name
  0.562,                                  ! ASHRAE Taub {dimensionless}
  1.761;                                  ! ASHRAE Taud {dimensionless}

OS:ComponentData,
  {8afe155b-0ba1-4187-a54b-c01de3fc9e45}, ! Handle
  Component Data 1,                       ! Name
  {51be2f2d-a5cc-449b-8c63-05975f6bc9d6}, ! UUID
  {750adb56-1007-4f13-abc4-6593867c4c32}, ! Version UUID
  1366310485,                             ! Creation Timestamp
  1366310485,                             ! Version Timestamp
  {681b142f-b47c-4ca5-aa66-a004020625e5}; ! Name of Object 1

