
OS:Version,
  {cfbbc345-6a17-42b3-8ae2-37f1d321f1c4}, ! Handle
  0.9.3;                                  ! Version Identifier

OS:SizingPeriod:DesignDay,
  {ea2dbb76-2d8b-4fd0-be15-eaff55f912a3}, ! Handle
  Chattanooga Lovell Field Ap Ann Clg 2% Condns DP=>MDB, ! Name
  26.6,                                   ! Maximum Dry-Bulb Temperature {C}
  10.6,                                   ! Daily Dry-Bulb Temperature Range {deltaC}
  22.8,                                   ! Humidity Indicating Conditions at Maximum Dry-Bulb {BasedOnField A3}
  98898,                                  ! Barometric Pressure {Pa}
  3.2,                                    ! Wind Speed {m/s}
  280,                                    ! Wind Direction {deg}
  0,                                      ! Sky Clearness
  0,                                      ! Rain Indicator
  0,                                      ! Snow Indicator
  21,                                     ! Day of Month
  7,                                      ! Month
  SummerDesignDay,                        ! Day Type
  0,                                      ! Daylight Saving Time Indicator
  Dewpoint,                               ! Humidity Indicating Type
  ,                                       ! Humidity Indicating Day Schedule Name
  DefaultMultipliers,                     ! Dry-Bulb Temperature Range Modifier Type
  ,                                       ! Dry-Bulb Temperature Range Modifier Schedule Name
  ASHRAETau,                              ! Solar Model Indicator
  ,                                       ! Beam Solar Day Schedule Name
  ,                                       ! Diffuse Solar Day Schedule Name
  0.562,                                  ! ASHRAE Taub {dimensionless}
  1.761;                                  ! ASHRAE Taud {dimensionless}

OS:ComponentData,
  {40c63978-ac22-48e0-8b1c-b79f9eb9594b}, ! Handle
  Component Data 1,                       ! Name
  {55f36949-0c8e-4c26-b8fa-7bf289f6a204}, ! UUID
  {16bd3747-cba7-423a-ad81-4e57c3d70318}, ! Version UUID
  1366310489,                             ! Creation Timestamp
  1366310489,                             ! Version Timestamp
  {ea2dbb76-2d8b-4fd0-be15-eaff55f912a3}; ! Name of Object 1

