
OS:Version,
  {59361217-d5f4-4a43-881e-d808b64c6edb}, ! Handle
  0.9.3;                                  ! Version Identifier

OS:SizingPeriod:DesignDay,
  {83e10e62-c6c1-4d9c-b30d-ed8294b7a048}, ! Handle
  Lake Charles Regional Arpt Ann Clg .4% Condns DB=>MWB, ! Name
  34.5,                                   ! Maximum Dry-Bulb Temperature {C}
  8.6,                                    ! Daily Dry-Bulb Temperature Range {deltaC}
  25.5,                                   ! Humidity Indicating Conditions at Maximum Dry-Bulb {BasedOnField A3}
  101265,                                 ! Barometric Pressure {Pa}
  3.3,                                    ! Wind Speed {m/s}
  230,                                    ! Wind Direction {deg}
  0,                                      ! Sky Clearness
  0,                                      ! Rain Indicator
  0,                                      ! Snow Indicator
  21,                                     ! Day of Month
  7,                                      ! Month
  SummerDesignDay,                        ! Day Type
  0,                                      ! Daylight Saving Time Indicator
  Wetbulb,                                ! Humidity Indicating Type
  ,                                       ! Humidity Indicating Day Schedule Name
  DefaultMultipliers,                     ! Dry-Bulb Temperature Range Modifier Type
  ,                                       ! Dry-Bulb Temperature Range Modifier Schedule Name
  ASHRAETau,                              ! Solar Model Indicator
  ,                                       ! Beam Solar Day Schedule Name
  ,                                       ! Diffuse Solar Day Schedule Name
  0.528,                                  ! ASHRAE Taub {dimensionless}
  1.904;                                  ! ASHRAE Taud {dimensionless}

OS:ComponentData,
  {3fe99134-fde9-42df-ab38-0c86e0ed17a0}, ! Handle
  Component Data 1,                       ! Name
  {62a8f280-8356-4d04-81da-5de252d90bc2}, ! UUID
  {0aaf7c1f-5599-48cf-9564-744b4d86fbe8}, ! Version UUID
  1366307731,                             ! Creation Timestamp
  1366307731,                             ! Version Timestamp
  {83e10e62-c6c1-4d9c-b30d-ed8294b7a048}; ! Name of Object 1

