
OS:Version,
  {36468058-1f7b-4e92-8c66-46753e5b1b98}, ! Handle
  0.9.3;                                  ! Version Identifier

OS:SizingPeriod:DesignDay,
  {e521efa9-a2c3-48b3-be0c-b37ef36450e7}, ! Handle
  Gunnison Co   Awos Ann Clg .4% Condns WB=>MDB, ! Name
  21.8,                                   ! Maximum Dry-Bulb Temperature {C}
  17.9,                                   ! Daily Dry-Bulb Temperature Range {deltaC}
  13.7,                                   ! Humidity Indicating Conditions at Maximum Dry-Bulb {BasedOnField A3}
  76206,                                  ! Barometric Pressure {Pa}
  4.4,                                    ! Wind Speed {m/s}
  250,                                    ! Wind Direction {deg}
  0,                                      ! Sky Clearness
  0,                                      ! Rain Indicator
  0,                                      ! Snow Indicator
  21,                                     ! Day of Month
  7,                                      ! Month
  SummerDesignDay,                        ! Day Type
  0,                                      ! Daylight Saving Time Indicator
  Wetbulb,                                ! Humidity Indicating Type
  ,                                       ! Humidity Indicating Day Schedule Name
  DefaultMultipliers,                     ! Dry-Bulb Temperature Range Modifier Type
  ,                                       ! Dry-Bulb Temperature Range Modifier Schedule Name
  ASHRAETau,                              ! Solar Model Indicator
  ,                                       ! Beam Solar Day Schedule Name
  ,                                       ! Diffuse Solar Day Schedule Name
  0.384,                                  ! ASHRAE Taub {dimensionless}
  2.179;                                  ! ASHRAE Taud {dimensionless}

