
OS:Version,
  {9933d437-8d73-42fc-a21f-1db687b2a265}, ! Handle
  0.9.3;                                  ! Version Identifier

OS:SizingPeriod:DesignDay,
  {2f9499fc-568c-48a7-b7e3-7ef350585d68}, ! Handle
  Estherville Muni Ann Htg Wind 99.6% Condns WS=>MCDB, ! Name
  -9.2,                                   ! Maximum Dry-Bulb Temperature {C}
  0,                                      ! Daily Dry-Bulb Temperature Range {deltaC}
  -9.2,                                   ! Humidity Indicating Conditions at Maximum Dry-Bulb {BasedOnField A3}
  96600,                                  ! Barometric Pressure {Pa}
  15.5,                                   ! Wind Speed {m/s}
  310,                                    ! Wind Direction {deg}
  0,                                      ! Sky Clearness
  0,                                      ! Rain Indicator
  0,                                      ! Snow Indicator
  21,                                     ! Day of Month
  1,                                      ! Month
  WinterDesignDay,                        ! Day Type
  0,                                      ! Daylight Saving Time Indicator
  Wetbulb,                                ! Humidity Indicating Type
  ,                                       ! Humidity Indicating Day Schedule Name
  DefaultMultipliers,                     ! Dry-Bulb Temperature Range Modifier Type
  ,                                       ! Dry-Bulb Temperature Range Modifier Schedule Name
  ASHRAEClearSky;                         ! Solar Model Indicator

OS:ComponentData,
  {16af3929-4125-4721-818b-dbc924d3689e}, ! Handle
  Component Data 1,                       ! Name
  {6f4675a9-ad68-4948-877a-4eed35aa5dbc}, ! UUID
  {c628d9b2-a277-46d5-8232-f3e4d7bfc3bf}, ! Version UUID
  1366307187,                             ! Creation Timestamp
  1366307187,                             ! Version Timestamp
  {2f9499fc-568c-48a7-b7e3-7ef350585d68}; ! Name of Object 1

