
OS:Version,
  {e3981b67-a5e4-49c7-a27d-2533d1353dfc}, ! Handle
  0.9.3;                                  ! Version Identifier

OS:SizingPeriod:DesignDay,
  {f45c3ea0-66d5-416e-be7e-7ae308346f71}, ! Handle
  Brownsville Ann Htg Wind 99.6% Condns WS=>MCDB, ! Name
  23.9,                                   ! Maximum Dry-Bulb Temperature {C}
  0,                                      ! Daily Dry-Bulb Temperature Range {deltaC}
  23.9,                                   ! Humidity Indicating Conditions at Maximum Dry-Bulb {BasedOnField A3}
  101253,                                 ! Barometric Pressure {Pa}
  12.8,                                   ! Wind Speed {m/s}
  330,                                    ! Wind Direction {deg}
  0,                                      ! Sky Clearness
  0,                                      ! Rain Indicator
  0,                                      ! Snow Indicator
  21,                                     ! Day of Month
  1,                                      ! Month
  WinterDesignDay,                        ! Day Type
  0,                                      ! Daylight Saving Time Indicator
  Wetbulb,                                ! Humidity Indicating Type
  ,                                       ! Humidity Indicating Day Schedule Name
  DefaultMultipliers,                     ! Dry-Bulb Temperature Range Modifier Type
  ,                                       ! Dry-Bulb Temperature Range Modifier Schedule Name
  ASHRAEClearSky;                         ! Solar Model Indicator

OS:ComponentData,
  {59f88308-3be3-4a09-aa81-b4309a892fff}, ! Handle
  Component Data 1,                       ! Name
  {4c58e3f9-67d9-424b-8ff2-b0d548f3018a}, ! UUID
  {e46323b0-0092-4b58-b1cd-975fe09ba7f6}, ! Version UUID
  1366310600,                             ! Creation Timestamp
  1366310600,                             ! Version Timestamp
  {f45c3ea0-66d5-416e-be7e-7ae308346f71}; ! Name of Object 1

