
OS:Version,
  {a6370331-b414-4abd-941d-4afccbc4c67f}, ! Handle
  0.9.3;                                  ! Version Identifier

OS:SizingPeriod:DesignDay,
  {71cf4872-b0f3-461d-9d07-1876ff5a906a}, ! Handle
  COLUMBIA Ann Clg 1% Condns DB=>MWB,     ! Name
  33.1,                                   ! Maximum Dry-Bulb Temperature {C}
  11,                                     ! Daily Dry-Bulb Temperature Range {deltaC}
  24.4,                                   ! Humidity Indicating Conditions at Maximum Dry-Bulb {BasedOnField A3}
  98123,                                  ! Barometric Pressure {Pa}
  4.4,                                    ! Wind Speed {m/s}
  220,                                    ! Wind Direction {deg}
  0,                                      ! Sky Clearness
  0,                                      ! Rain Indicator
  0,                                      ! Snow Indicator
  21,                                     ! Day of Month
  7,                                      ! Month
  SummerDesignDay,                        ! Day Type
  0,                                      ! Daylight Saving Time Indicator
  Wetbulb,                                ! Humidity Indicating Type
  ,                                       ! Humidity Indicating Day Schedule Name
  DefaultMultipliers,                     ! Dry-Bulb Temperature Range Modifier Type
  ,                                       ! Dry-Bulb Temperature Range Modifier Schedule Name
  ASHRAETau,                              ! Solar Model Indicator
  ,                                       ! Beam Solar Day Schedule Name
  ,                                       ! Diffuse Solar Day Schedule Name
  0.448,                                  ! ASHRAE Taub {dimensionless}
  2.098;                                  ! ASHRAE Taud {dimensionless}

OS:ComponentData,
  {6768470c-f621-4313-8326-bcaa6ef9bf98}, ! Handle
  Component Data 1,                       ! Name
  {bcd0c443-6754-41e8-b340-c3159190ded1}, ! UUID
  {aaa09603-74e3-4d0a-9d7d-bad722504f47}, ! Version UUID
  1366308480,                             ! Creation Timestamp
  1366308480,                             ! Version Timestamp
  {71cf4872-b0f3-461d-9d07-1876ff5a906a}; ! Name of Object 1

