
OS:Version,
  {e7c950f0-e9e9-452d-914f-a6b54df9b90e}, ! Handle
  0.9.3;                                  ! Version Identifier

OS:SizingPeriod:DesignDay,
  {cc101920-b48a-4a83-bb50-0d4787b320e2}, ! Handle
  Liberal Muni Ann Clg 2% Condns DP=>MDB, ! Name
  24.9,                                   ! Maximum Dry-Bulb Temperature {C}
  14.7,                                   ! Daily Dry-Bulb Temperature Range {deltaC}
  20.1,                                   ! Humidity Indicating Conditions at Maximum Dry-Bulb {BasedOnField A3}
  90959,                                  ! Barometric Pressure {Pa}
  7.3,                                    ! Wind Speed {m/s}
  190,                                    ! Wind Direction {deg}
  0,                                      ! Sky Clearness
  0,                                      ! Rain Indicator
  0,                                      ! Snow Indicator
  21,                                     ! Day of Month
  7,                                      ! Month
  SummerDesignDay,                        ! Day Type
  0,                                      ! Daylight Saving Time Indicator
  Dewpoint,                               ! Humidity Indicating Type
  ,                                       ! Humidity Indicating Day Schedule Name
  DefaultMultipliers,                     ! Dry-Bulb Temperature Range Modifier Type
  ,                                       ! Dry-Bulb Temperature Range Modifier Schedule Name
  ASHRAETau,                              ! Solar Model Indicator
  ,                                       ! Beam Solar Day Schedule Name
  ,                                       ! Diffuse Solar Day Schedule Name
  0.42,                                   ! ASHRAE Taub {dimensionless}
  2.114;                                  ! ASHRAE Taud {dimensionless}

OS:ComponentData,
  {c0b8b09e-9548-4d2f-aabb-2aec0055bcb8}, ! Handle
  Component Data 1,                       ! Name
  {21e1445d-9704-4653-b762-d4abbb8122fa}, ! UUID
  {d99de30a-6430-4dd9-b5e4-918324bd4638}, ! Version UUID
  1366307555,                             ! Creation Timestamp
  1366307555,                             ! Version Timestamp
  {cc101920-b48a-4a83-bb50-0d4787b320e2}; ! Name of Object 1

