
OS:Version,
  {49b0dce3-cc56-4de5-90b1-01f58f5efc98}, ! Handle
  0.9.3;                                  ! Version Identifier

OS:SizingPeriod:DesignDay,
  {11c43346-c10b-480c-ad27-0c36e2751a55}, ! Handle
  Cordova Ann Clg 2% Condns DB=>MWB,      ! Name
  17.8,                                   ! Maximum Dry-Bulb Temperature {C}
  7.2,                                    ! Daily Dry-Bulb Temperature Range {deltaC}
  13.4,                                   ! Humidity Indicating Conditions at Maximum Dry-Bulb {BasedOnField A3}
  101181,                                 ! Barometric Pressure {Pa}
  3,                                      ! Wind Speed {m/s}
  240,                                    ! Wind Direction {deg}
  0,                                      ! Sky Clearness
  0,                                      ! Rain Indicator
  0,                                      ! Snow Indicator
  21,                                     ! Day of Month
  7,                                      ! Month
  SummerDesignDay,                        ! Day Type
  0,                                      ! Daylight Saving Time Indicator
  Wetbulb,                                ! Humidity Indicating Type
  ,                                       ! Humidity Indicating Day Schedule Name
  DefaultMultipliers,                     ! Dry-Bulb Temperature Range Modifier Type
  ,                                       ! Dry-Bulb Temperature Range Modifier Schedule Name
  ASHRAETau,                              ! Solar Model Indicator
  ,                                       ! Beam Solar Day Schedule Name
  ,                                       ! Diffuse Solar Day Schedule Name
  0.388,                                  ! ASHRAE Taub {dimensionless}
  2.132;                                  ! ASHRAE Taud {dimensionless}

OS:ComponentData,
  {942a36dc-54ee-4de8-a406-8d43d7054c5b}, ! Handle
  Component Data 1,                       ! Name
  {504e9546-c58a-421a-b05d-3bc0142db5ac}, ! UUID
  {6313ca07-7818-4ed2-9846-c78f49dba44f}, ! Version UUID
  1366304815,                             ! Creation Timestamp
  1366304815,                             ! Version Timestamp
  {11c43346-c10b-480c-ad27-0c36e2751a55}; ! Name of Object 1

