
OS:Version,
  {6365cc9c-3d04-45c3-b663-08276a772f4f}, ! Handle
  0.9.3;                                  ! Version Identifier

OS:SizingPeriod:DesignDay,
  {1c6cdf67-a08c-49e8-a1cb-9d8bbf5099eb}, ! Handle
  Buffalo Ann Clg 1% Condns Enth=>MDB,    ! Name
  26.9,                                   ! Maximum Dry-Bulb Temperature {C}
  9.3,                                    ! Daily Dry-Bulb Temperature Range {deltaC}
  68500,                                  ! Humidity Indicating Conditions at Maximum Dry-Bulb {BasedOnField A3}
  98769,                                  ! Barometric Pressure {Pa}
  5.7,                                    ! Wind Speed {m/s}
  240,                                    ! Wind Direction {deg}
  0,                                      ! Sky Clearness
  0,                                      ! Rain Indicator
  0,                                      ! Snow Indicator
  21,                                     ! Day of Month
  7,                                      ! Month
  SummerDesignDay,                        ! Day Type
  0,                                      ! Daylight Saving Time Indicator
  Enthalpy,                               ! Humidity Indicating Type
  ,                                       ! Humidity Indicating Day Schedule Name
  DefaultMultipliers,                     ! Dry-Bulb Temperature Range Modifier Type
  ,                                       ! Dry-Bulb Temperature Range Modifier Schedule Name
  ASHRAETau,                              ! Solar Model Indicator
  ,                                       ! Beam Solar Day Schedule Name
  ,                                       ! Diffuse Solar Day Schedule Name
  0.462,                                  ! ASHRAE Taub {dimensionless}
  2.001;                                  ! ASHRAE Taud {dimensionless}

OS:ComponentData,
  {70235d1e-1146-49ef-b45a-d934029b35d6}, ! Handle
  Component Data 1,                       ! Name
  {3d33e28a-7add-4ccd-9568-e02a7ba5912e}, ! UUID
  {c7d55495-9f4e-4939-9899-d54e0458b578}, ! Version UUID
  1366309605,                             ! Creation Timestamp
  1366309605,                             ! Version Timestamp
  {1c6cdf67-a08c-49e8-a1cb-9d8bbf5099eb}; ! Name of Object 1

