
OS:Version,
  {72891f62-28c7-41ff-976f-cfb68cf8e6f0}, ! Handle
  0.9.3;                                  ! Version Identifier

OS:SizingPeriod:DesignDay,
  {75ef73d6-ada4-4050-b778-911f2d6d1d74}, ! Handle
  Dothan Municipal Ap Ann Clg .4% Condns Enth=>MDB, ! Name
  32,                                     ! Maximum Dry-Bulb Temperature {C}
  9.7,                                    ! Daily Dry-Bulb Temperature Range {deltaC}
  83800,                                  ! Humidity Indicating Conditions at Maximum Dry-Bulb {BasedOnField A3}
  100153,                                 ! Barometric Pressure {Pa}
  3.7,                                    ! Wind Speed {m/s}
  300,                                    ! Wind Direction {deg}
  0,                                      ! Sky Clearness
  0,                                      ! Rain Indicator
  0,                                      ! Snow Indicator
  21,                                     ! Day of Month
  7,                                      ! Month
  SummerDesignDay,                        ! Day Type
  0,                                      ! Daylight Saving Time Indicator
  Enthalpy,                               ! Humidity Indicating Type
  ,                                       ! Humidity Indicating Day Schedule Name
  DefaultMultipliers,                     ! Dry-Bulb Temperature Range Modifier Type
  ,                                       ! Dry-Bulb Temperature Range Modifier Schedule Name
  ASHRAETau,                              ! Solar Model Indicator
  ,                                       ! Beam Solar Day Schedule Name
  ,                                       ! Diffuse Solar Day Schedule Name
  0.544,                                  ! ASHRAE Taub {dimensionless}
  1.83;                                   ! ASHRAE Taud {dimensionless}

OS:ComponentData,
  {150ea738-7fe2-4989-aa5c-f83f97ff6ae2}, ! Handle
  Component Data 1,                       ! Name
  {98105434-97be-4726-a78d-23f3786d0ffc}, ! UUID
  {ab6bf264-bb41-4f8a-ba84-4be3fa35803b}, ! Version UUID
  1366305652,                             ! Creation Timestamp
  1366305652,                             ! Version Timestamp
  {75ef73d6-ada4-4050-b778-911f2d6d1d74}; ! Name of Object 1

