
OS:Version,
  {142be2a3-7c50-46e7-8ce0-10a3f1aa770f}, ! Handle
  0.9.3;                                  ! Version Identifier

OS:SizingPeriod:DesignDay,
  {3ffdddf2-f6be-4c52-bb3e-c8d4edaf32fa}, ! Handle
  Farmington Four Corners Regl Ann Clg 2% Condns WB=>MDB, ! Name
  26.9,                                   ! Maximum Dry-Bulb Temperature {C}
  16.1,                                   ! Daily Dry-Bulb Temperature Range {deltaC}
  17.3,                                   ! Humidity Indicating Conditions at Maximum Dry-Bulb {BasedOnField A3}
  82756,                                  ! Barometric Pressure {Pa}
  4.9,                                    ! Wind Speed {m/s}
  240,                                    ! Wind Direction {deg}
  0,                                      ! Sky Clearness
  0,                                      ! Rain Indicator
  0,                                      ! Snow Indicator
  21,                                     ! Day of Month
  7,                                      ! Month
  SummerDesignDay,                        ! Day Type
  0,                                      ! Daylight Saving Time Indicator
  Wetbulb,                                ! Humidity Indicating Type
  ,                                       ! Humidity Indicating Day Schedule Name
  DefaultMultipliers,                     ! Dry-Bulb Temperature Range Modifier Type
  ,                                       ! Dry-Bulb Temperature Range Modifier Schedule Name
  ASHRAETau,                              ! Solar Model Indicator
  ,                                       ! Beam Solar Day Schedule Name
  ,                                       ! Diffuse Solar Day Schedule Name
  0.402,                                  ! ASHRAE Taub {dimensionless}
  2.092;                                  ! ASHRAE Taud {dimensionless}

OS:ComponentData,
  {4e732558-865e-46a8-b9f7-be1d7dda4968}, ! Handle
  Component Data 1,                       ! Name
  {be18bfd4-6fae-4ffb-ba8c-57e4d542fb0a}, ! UUID
  {80b587aa-462d-43f9-bda9-fa96674e7f7f}, ! Version UUID
  1366309403,                             ! Creation Timestamp
  1366309403,                             ! Version Timestamp
  {3ffdddf2-f6be-4c52-bb3e-c8d4edaf32fa}; ! Name of Object 1

