
OS:Version,
  {331bbf46-f441-4c0a-afe4-d4884f464332}, ! Handle
  0.9.3;                                  ! Version Identifier

OS:SizingPeriod:DesignDay,
  {c966941e-d159-417c-80b8-859ffb87f7f4}, ! Handle
  Dubuque Regional Ap Ann Htg Wind 99.6% Condns WS=>MCDB, ! Name
  -5.2,                                   ! Maximum Dry-Bulb Temperature {C}
  0,                                      ! Daily Dry-Bulb Temperature Range {deltaC}
  -5.2,                                   ! Humidity Indicating Conditions at Maximum Dry-Bulb {BasedOnField A3}
  97516,                                  ! Barometric Pressure {Pa}
  12.6,                                   ! Wind Speed {m/s}
  300,                                    ! Wind Direction {deg}
  0,                                      ! Sky Clearness
  0,                                      ! Rain Indicator
  0,                                      ! Snow Indicator
  21,                                     ! Day of Month
  1,                                      ! Month
  WinterDesignDay,                        ! Day Type
  0,                                      ! Daylight Saving Time Indicator
  Wetbulb,                                ! Humidity Indicating Type
  ,                                       ! Humidity Indicating Day Schedule Name
  DefaultMultipliers,                     ! Dry-Bulb Temperature Range Modifier Type
  ,                                       ! Dry-Bulb Temperature Range Modifier Schedule Name
  ASHRAEClearSky;                         ! Solar Model Indicator

OS:ComponentData,
  {2cfeaa49-2acd-4e8f-ab33-a62d58e178ad}, ! Handle
  Component Data 1,                       ! Name
  {8b6a7be7-e332-4964-b7e9-afb6df91cbc3}, ! UUID
  {07252253-35f7-4255-bd26-ab8b75b818b5}, ! Version UUID
  1366307183,                             ! Creation Timestamp
  1366307183,                             ! Version Timestamp
  {c966941e-d159-417c-80b8-859ffb87f7f4}; ! Name of Object 1

