
OS:Version,
  {e76c4567-2e3c-4223-a5e0-3ef718a6a3da}, ! Handle
  0.9.3;                                  ! Version Identifier

OS:SizingPeriod:DesignDay,
  {96bdb5a2-aded-4be6-a478-5031bd2f49cc}, ! Handle
  Clinton Muni  Awos Ann Clg .4% Condns DP=>MDB, ! Name
  29.2,                                   ! Maximum Dry-Bulb Temperature {C}
  10.9,                                   ! Daily Dry-Bulb Temperature Range {deltaC}
  23.9,                                   ! Humidity Indicating Conditions at Maximum Dry-Bulb {BasedOnField A3}
  98757,                                  ! Barometric Pressure {Pa}
  5.3,                                    ! Wind Speed {m/s}
  210,                                    ! Wind Direction {deg}
  0,                                      ! Sky Clearness
  0,                                      ! Rain Indicator
  0,                                      ! Snow Indicator
  21,                                     ! Day of Month
  7,                                      ! Month
  SummerDesignDay,                        ! Day Type
  0,                                      ! Daylight Saving Time Indicator
  Dewpoint,                               ! Humidity Indicating Type
  ,                                       ! Humidity Indicating Day Schedule Name
  DefaultMultipliers,                     ! Dry-Bulb Temperature Range Modifier Type
  ,                                       ! Dry-Bulb Temperature Range Modifier Schedule Name
  ASHRAETau,                              ! Solar Model Indicator
  ,                                       ! Beam Solar Day Schedule Name
  ,                                       ! Diffuse Solar Day Schedule Name
  0.444,                                  ! ASHRAE Taub {dimensionless}
  2.086;                                  ! ASHRAE Taud {dimensionless}

OS:ComponentData,
  {884bda7a-f564-4915-a594-445611bca043}, ! Handle
  Component Data 1,                       ! Name
  {f0da068d-f6f0-4a81-8fb2-1ac8026370d3}, ! UUID
  {ffa2a295-e47b-4b58-96cf-9a58ea1fb820}, ! Version UUID
  1366307160,                             ! Creation Timestamp
  1366307160,                             ! Version Timestamp
  {96bdb5a2-aded-4be6-a478-5031bd2f49cc}; ! Name of Object 1

