
OS:Version,
  {4ea9ea36-da41-4950-b9d3-f736054f6cce}, ! Handle
  0.9.3;                                  ! Version Identifier

OS:SizingPeriod:DesignDay,
  {973cf9dd-9c98-41b5-ab7c-1899ba2b287e}, ! Handle
  Indianapolis Ann Clg 2% Condns Enth=>MDB, ! Name
  28.4,                                   ! Maximum Dry-Bulb Temperature {C}
  10.2,                                   ! Daily Dry-Bulb Temperature Range {deltaC}
  73500,                                  ! Humidity Indicating Conditions at Maximum Dry-Bulb {BasedOnField A3}
  98404,                                  ! Barometric Pressure {Pa}
  4.8,                                    ! Wind Speed {m/s}
  220,                                    ! Wind Direction {deg}
  0,                                      ! Sky Clearness
  0,                                      ! Rain Indicator
  0,                                      ! Snow Indicator
  21,                                     ! Day of Month
  7,                                      ! Month
  SummerDesignDay,                        ! Day Type
  0,                                      ! Daylight Saving Time Indicator
  Enthalpy,                               ! Humidity Indicating Type
  ,                                       ! Humidity Indicating Day Schedule Name
  DefaultMultipliers,                     ! Dry-Bulb Temperature Range Modifier Type
  ,                                       ! Dry-Bulb Temperature Range Modifier Schedule Name
  ASHRAETau,                              ! Solar Model Indicator
  ,                                       ! Beam Solar Day Schedule Name
  ,                                       ! Diffuse Solar Day Schedule Name
  0.48,                                   ! ASHRAE Taub {dimensionless}
  1.954;                                  ! ASHRAE Taud {dimensionless}

