
OS:Version,
  {ea353483-764f-4b58-8007-12673f51b10f}, ! Handle
  0.9.3;                                  ! Version Identifier

OS:SizingPeriod:DesignDay,
  {10362646-0125-44cb-bb54-b50b10b20734}, ! Handle
  BROWNSVILLE Ann Clg .4% Condns Enth=>MDB, ! Name
  31,                                     ! Maximum Dry-Bulb Temperature {C}
  9.5,                                    ! Daily Dry-Bulb Temperature Range {deltaC}
  85100,                                  ! Humidity Indicating Conditions at Maximum Dry-Bulb {BasedOnField A3}
  101253,                                 ! Barometric Pressure {Pa}
  6.9,                                    ! Wind Speed {m/s}
  160,                                    ! Wind Direction {deg}
  0,                                      ! Sky Clearness
  0,                                      ! Rain Indicator
  0,                                      ! Snow Indicator
  21,                                     ! Day of Month
  8,                                      ! Month
  SummerDesignDay,                        ! Day Type
  0,                                      ! Daylight Saving Time Indicator
  Enthalpy,                               ! Humidity Indicating Type
  ,                                       ! Humidity Indicating Day Schedule Name
  DefaultMultipliers,                     ! Dry-Bulb Temperature Range Modifier Type
  ,                                       ! Dry-Bulb Temperature Range Modifier Schedule Name
  ASHRAETau,                              ! Solar Model Indicator
  ,                                       ! Beam Solar Day Schedule Name
  ,                                       ! Diffuse Solar Day Schedule Name
  0.465,                                  ! ASHRAE Taub {dimensionless}
  2.114;                                  ! ASHRAE Taud {dimensionless}

OS:ComponentData,
  {0e3a76cf-9e62-4ba3-8df8-4b361c801623}, ! Handle
  Component Data 1,                       ! Name
  {3f35acee-8491-46c9-a88f-546e59f547cc}, ! UUID
  {f6af75e7-c940-4d97-996f-54d3afe56c2e}, ! Version UUID
  1366310611,                             ! Creation Timestamp
  1366310611,                             ! Version Timestamp
  {10362646-0125-44cb-bb54-b50b10b20734}; ! Name of Object 1

