
OS:Version,
  {d717d41e-4f6e-451f-93ae-34eb05c7455c}, ! Handle
  0.9.3;                                  ! Version Identifier

OS:SizingPeriod:DesignDay,
  {828a42a9-32a4-4312-ba73-ebb5d653a9da}, ! Handle
  Burlington Ann Htg Wind 99.6% Condns WS=>MCDB, ! Name
  -9.7,                                   ! Maximum Dry-Bulb Temperature {C}
  0,                                      ! Daily Dry-Bulb Temperature Range {deltaC}
  -9.7,                                   ! Humidity Indicating Conditions at Maximum Dry-Bulb {BasedOnField A3}
  98792,                                  ! Barometric Pressure {Pa}
  11.8,                                   ! Wind Speed {m/s}
  310,                                    ! Wind Direction {deg}
  0,                                      ! Sky Clearness
  0,                                      ! Rain Indicator
  0,                                      ! Snow Indicator
  21,                                     ! Day of Month
  1,                                      ! Month
  WinterDesignDay,                        ! Day Type
  0,                                      ! Daylight Saving Time Indicator
  Wetbulb,                                ! Humidity Indicating Type
  ,                                       ! Humidity Indicating Day Schedule Name
  DefaultMultipliers,                     ! Dry-Bulb Temperature Range Modifier Type
  ,                                       ! Dry-Bulb Temperature Range Modifier Schedule Name
  ASHRAEClearSky;                         ! Solar Model Indicator

OS:ComponentData,
  {9fcc08b5-e66a-443a-a2a9-6579594c1fe2}, ! Handle
  Component Data 1,                       ! Name
  {b45fa13b-91e7-4a3c-a13a-bd288af32156}, ! UUID
  {3ceb0b52-cd67-409e-9df4-4753364137c5}, ! Version UUID
  1366307139,                             ! Creation Timestamp
  1366307139,                             ! Version Timestamp
  {828a42a9-32a4-4312-ba73-ebb5d653a9da}; ! Name of Object 1

