
OS:Version,
  {9ff1617d-5231-40c6-b2ef-7b96cb6686c2}, ! Handle
  0.9.3;                                  ! Version Identifier

OS:SizingPeriod:DesignDay,
  {7165c7e5-83bf-4e97-b2e0-e00496c2a771}, ! Handle
  Atlanta Hartsfield Intl Ap Ann Clg 2% Condns WB=>MDB, ! Name
  29.4,                                   ! Maximum Dry-Bulb Temperature {C}
  9.5,                                    ! Daily Dry-Bulb Temperature Range {deltaC}
  24,                                     ! Humidity Indicating Conditions at Maximum Dry-Bulb {BasedOnField A3}
  97679,                                  ! Barometric Pressure {Pa}
  4,                                      ! Wind Speed {m/s}
  300,                                    ! Wind Direction {deg}
  0,                                      ! Sky Clearness
  0,                                      ! Rain Indicator
  0,                                      ! Snow Indicator
  21,                                     ! Day of Month
  7,                                      ! Month
  SummerDesignDay,                        ! Day Type
  0,                                      ! Daylight Saving Time Indicator
  Wetbulb,                                ! Humidity Indicating Type
  ,                                       ! Humidity Indicating Day Schedule Name
  DefaultMultipliers,                     ! Dry-Bulb Temperature Range Modifier Type
  ,                                       ! Dry-Bulb Temperature Range Modifier Schedule Name
  ASHRAETau,                              ! Solar Model Indicator
  ,                                       ! Beam Solar Day Schedule Name
  ,                                       ! Diffuse Solar Day Schedule Name
  0.556,                                  ! ASHRAE Taub {dimensionless}
  1.779;                                  ! ASHRAE Taud {dimensionless}

OS:ComponentData,
  {70a3252a-4905-41db-8c78-bf2154bc9e51}, ! Handle
  Component Data 1,                       ! Name
  {a86a33fa-38ad-472c-ac15-9365fc37e837}, ! UUID
  {25b2c511-116e-416b-95a1-040f11127c31}, ! Version UUID
  1366306979,                             ! Creation Timestamp
  1366306979,                             ! Version Timestamp
  {7165c7e5-83bf-4e97-b2e0-e00496c2a771}; ! Name of Object 1

