
OS:Version,
  {72a21d97-e2e2-4e38-bf58-441289e1cff9}, ! Handle
  0.9.3;                                  ! Version Identifier

OS:SizingPeriod:DesignDay,
  {cabc316e-ed21-4f33-867f-db97ca2152e7}, ! Handle
  Little Rock Adams Field Ann Clg .4% Condns WB=>MDB, ! Name
  33.2,                                   ! Maximum Dry-Bulb Temperature {C}
  10.6,                                   ! Daily Dry-Bulb Temperature Range {deltaC}
  26.8,                                   ! Humidity Indicating Conditions at Maximum Dry-Bulb {BasedOnField A3}
  100391,                                 ! Barometric Pressure {Pa}
  3.9,                                    ! Wind Speed {m/s}
  200,                                    ! Wind Direction {deg}
  0,                                      ! Sky Clearness
  0,                                      ! Rain Indicator
  0,                                      ! Snow Indicator
  21,                                     ! Day of Month
  7,                                      ! Month
  SummerDesignDay,                        ! Day Type
  0,                                      ! Daylight Saving Time Indicator
  Wetbulb,                                ! Humidity Indicating Type
  ,                                       ! Humidity Indicating Day Schedule Name
  DefaultMultipliers,                     ! Dry-Bulb Temperature Range Modifier Type
  ,                                       ! Dry-Bulb Temperature Range Modifier Schedule Name
  ASHRAETau,                              ! Solar Model Indicator
  ,                                       ! Beam Solar Day Schedule Name
  ,                                       ! Diffuse Solar Day Schedule Name
  0.517,                                  ! ASHRAE Taub {dimensionless}
  1.901;                                  ! ASHRAE Taud {dimensionless}

OS:ComponentData,
  {3cd0d0ab-b412-4698-9abe-fb31d7bf816d}, ! Handle
  Component Data 1,                       ! Name
  {078fd42b-d395-4749-bc51-10f6da064969}, ! UUID
  {edb43687-fe23-4c21-9a38-a0ac46c30666}, ! Version UUID
  1366306229,                             ! Creation Timestamp
  1366306229,                             ! Version Timestamp
  {cabc316e-ed21-4f33-867f-db97ca2152e7}; ! Name of Object 1

