
OS:Version,
  {124a9023-c787-4394-b582-1f5ea0a5b03e}, ! Handle
  0.9.3;                                  ! Version Identifier

OS:SizingPeriod:DesignDay,
  {587a775f-a905-482c-bcc3-7cfdbd2b6800}, ! Handle
  Evansville Regional Ap Ann Clg .4% Condns DB=>MWB, ! Name
  34.4,                                   ! Maximum Dry-Bulb Temperature {C}
  10.6,                                   ! Daily Dry-Bulb Temperature Range {deltaC}
  24.6,                                   ! Humidity Indicating Conditions at Maximum Dry-Bulb {BasedOnField A3}
  99939,                                  ! Barometric Pressure {Pa}
  3.7,                                    ! Wind Speed {m/s}
  240,                                    ! Wind Direction {deg}
  0,                                      ! Sky Clearness
  0,                                      ! Rain Indicator
  0,                                      ! Snow Indicator
  21,                                     ! Day of Month
  7,                                      ! Month
  SummerDesignDay,                        ! Day Type
  0,                                      ! Daylight Saving Time Indicator
  Wetbulb,                                ! Humidity Indicating Type
  ,                                       ! Humidity Indicating Day Schedule Name
  DefaultMultipliers,                     ! Dry-Bulb Temperature Range Modifier Type
  ,                                       ! Dry-Bulb Temperature Range Modifier Schedule Name
  ASHRAETau,                              ! Solar Model Indicator
  ,                                       ! Beam Solar Day Schedule Name
  ,                                       ! Diffuse Solar Day Schedule Name
  0.508,                                  ! ASHRAE Taub {dimensionless}
  1.881;                                  ! ASHRAE Taud {dimensionless}

OS:ComponentData,
  {4555366f-540d-4304-8a4d-dfc9adc09e0a}, ! Handle
  Component Data 1,                       ! Name
  {53b90c5a-71ef-4620-8583-b99bd55d43ca}, ! UUID
  {c1722383-9255-4cb4-bf8f-ec08ade529de}, ! Version UUID
  1366307433,                             ! Creation Timestamp
  1366307433,                             ! Version Timestamp
  {587a775f-a905-482c-bcc3-7cfdbd2b6800}; ! Name of Object 1

