
OS:Version,
  {8901c47d-84eb-4337-ae53-0edf47c456b7}, ! Handle
  0.9.3;                                  ! Version Identifier

OS:SizingPeriod:DesignDay,
  {411df32d-b083-4275-b278-e8984bd21151}, ! Handle
  Cordova Ann Clg 1% Condns WB=>MDB,      ! Name
  18.4,                                   ! Maximum Dry-Bulb Temperature {C}
  7.2,                                    ! Daily Dry-Bulb Temperature Range {deltaC}
  14.9,                                   ! Humidity Indicating Conditions at Maximum Dry-Bulb {BasedOnField A3}
  101181,                                 ! Barometric Pressure {Pa}
  3,                                      ! Wind Speed {m/s}
  240,                                    ! Wind Direction {deg}
  0,                                      ! Sky Clearness
  0,                                      ! Rain Indicator
  0,                                      ! Snow Indicator
  21,                                     ! Day of Month
  7,                                      ! Month
  SummerDesignDay,                        ! Day Type
  0,                                      ! Daylight Saving Time Indicator
  Wetbulb,                                ! Humidity Indicating Type
  ,                                       ! Humidity Indicating Day Schedule Name
  DefaultMultipliers,                     ! Dry-Bulb Temperature Range Modifier Type
  ,                                       ! Dry-Bulb Temperature Range Modifier Schedule Name
  ASHRAETau,                              ! Solar Model Indicator
  ,                                       ! Beam Solar Day Schedule Name
  ,                                       ! Diffuse Solar Day Schedule Name
  0.388,                                  ! ASHRAE Taub {dimensionless}
  2.132;                                  ! ASHRAE Taud {dimensionless}

OS:ComponentData,
  {35b28fcc-7ba3-4e8d-8d67-98f06eaadc37}, ! Handle
  Component Data 1,                       ! Name
  {a5ac5ea5-8e33-4a20-bbc9-0fe46c2d49fa}, ! UUID
  {39996d68-5cf8-4519-88dc-f3922def8332}, ! Version UUID
  1366304815,                             ! Creation Timestamp
  1366304815,                             ! Version Timestamp
  {411df32d-b083-4275-b278-e8984bd21151}; ! Name of Object 1

