
OS:Version,
  {148949ca-408f-44ed-9156-40d52d94b7b5}, ! Handle
  0.9.3;                                  ! Version Identifier

OS:SizingPeriod:DesignDay,
  {713b9cb3-d9d8-473e-855d-7a91ba17673d}, ! Handle
  Kearney Muni  Awos Ann Clg 2% Condns WB=>MDB, ! Name
  29.5,                                   ! Maximum Dry-Bulb Temperature {C}
  12.2,                                   ! Daily Dry-Bulb Temperature Range {deltaC}
  22.7,                                   ! Humidity Indicating Conditions at Maximum Dry-Bulb {BasedOnField A3}
  93767,                                  ! Barometric Pressure {Pa}
  6.4,                                    ! Wind Speed {m/s}
  190,                                    ! Wind Direction {deg}
  0,                                      ! Sky Clearness
  0,                                      ! Rain Indicator
  0,                                      ! Snow Indicator
  21,                                     ! Day of Month
  7,                                      ! Month
  SummerDesignDay,                        ! Day Type
  0,                                      ! Daylight Saving Time Indicator
  Wetbulb,                                ! Humidity Indicating Type
  ,                                       ! Humidity Indicating Day Schedule Name
  DefaultMultipliers,                     ! Dry-Bulb Temperature Range Modifier Type
  ,                                       ! Dry-Bulb Temperature Range Modifier Schedule Name
  ASHRAETau,                              ! Solar Model Indicator
  ,                                       ! Beam Solar Day Schedule Name
  ,                                       ! Diffuse Solar Day Schedule Name
  0.404,                                  ! ASHRAE Taub {dimensionless}
  2.221;                                  ! ASHRAE Taud {dimensionless}

OS:ComponentData,
  {d3d92688-989a-4031-9790-f0790b5fba59}, ! Handle
  Component Data 1,                       ! Name
  {d347a824-cf44-4ac2-b881-c131da000b61}, ! UUID
  {5d86738d-a3a2-44f7-b7c5-610bed85f202}, ! Version UUID
  1366309136,                             ! Creation Timestamp
  1366309136,                             ! Version Timestamp
  {713b9cb3-d9d8-473e-855d-7a91ba17673d}; ! Name of Object 1

