
OS:Version,
  {3b64324c-7dae-4925-9bec-69d42214c05c}, ! Handle
  0.9.3;                                  ! Version Identifier

OS:SizingPeriod:DesignDay,
  {fc1ec8d5-c8ca-4dd1-a572-4cbdca63d96b}, ! Handle
  Crossville Memorial Ap Ann Htg Wind 99.6% Condns WS=>MCDB, ! Name
  6.5,                                    ! Maximum Dry-Bulb Temperature {C}
  0,                                      ! Daily Dry-Bulb Temperature Range {deltaC}
  6.5,                                    ! Humidity Indicating Conditions at Maximum Dry-Bulb {BasedOnField A3}
  94674,                                  ! Barometric Pressure {Pa}
  8.9,                                    ! Wind Speed {m/s}
  300,                                    ! Wind Direction {deg}
  0,                                      ! Sky Clearness
  0,                                      ! Rain Indicator
  0,                                      ! Snow Indicator
  21,                                     ! Day of Month
  1,                                      ! Month
  WinterDesignDay,                        ! Day Type
  0,                                      ! Daylight Saving Time Indicator
  Wetbulb,                                ! Humidity Indicating Type
  ,                                       ! Humidity Indicating Day Schedule Name
  DefaultMultipliers,                     ! Dry-Bulb Temperature Range Modifier Type
  ,                                       ! Dry-Bulb Temperature Range Modifier Schedule Name
  ASHRAEClearSky;                         ! Solar Model Indicator

OS:ComponentData,
  {930080ee-3549-4f66-9e63-736ce6cd3210}, ! Handle
  Component Data 1,                       ! Name
  {628540c9-81de-4d99-b994-44735a45214d}, ! UUID
  {cdc3d89a-9b87-4d81-a8fe-57985488ba24}, ! Version UUID
  1366310496,                             ! Creation Timestamp
  1366310496,                             ! Version Timestamp
  {fc1ec8d5-c8ca-4dd1-a572-4cbdca63d96b}; ! Name of Object 1

