
OS:Version,
  {d61dcc03-ecd1-4f70-a7d6-84167488aec1}, ! Handle
  0.9.3;                                  ! Version Identifier

OS:SizingPeriod:DesignDay,
  {d13429dc-d26a-42fc-8a95-b3f7881ba41f}, ! Handle
  Little Falls  Awos Ann Clg 1% Condns WB=>MDB, ! Name
  28.2,                                   ! Maximum Dry-Bulb Temperature {C}
  12.3,                                   ! Daily Dry-Bulb Temperature Range {deltaC}
  23.4,                                   ! Humidity Indicating Conditions at Maximum Dry-Bulb {BasedOnField A3}
  97283,                                  ! Barometric Pressure {Pa}
  4.5,                                    ! Wind Speed {m/s}
  190,                                    ! Wind Direction {deg}
  0,                                      ! Sky Clearness
  0,                                      ! Rain Indicator
  0,                                      ! Snow Indicator
  21,                                     ! Day of Month
  7,                                      ! Month
  SummerDesignDay,                        ! Day Type
  0,                                      ! Daylight Saving Time Indicator
  Wetbulb,                                ! Humidity Indicating Type
  ,                                       ! Humidity Indicating Day Schedule Name
  DefaultMultipliers,                     ! Dry-Bulb Temperature Range Modifier Type
  ,                                       ! Dry-Bulb Temperature Range Modifier Schedule Name
  ASHRAETau,                              ! Solar Model Indicator
  ,                                       ! Beam Solar Day Schedule Name
  ,                                       ! Diffuse Solar Day Schedule Name
  0.398,                                  ! ASHRAE Taub {dimensionless}
  2.244;                                  ! ASHRAE Taud {dimensionless}

OS:ComponentData,
  {8c08cef1-5dd2-4330-9b51-599e475996e5}, ! Handle
  Component Data 1,                       ! Name
  {6110f74c-9b33-4c9c-9704-711d294c688e}, ! UUID
  {10b6b51e-957d-4769-94c9-406a55de28e3}, ! Version UUID
  1366308288,                             ! Creation Timestamp
  1366308288,                             ! Version Timestamp
  {d13429dc-d26a-42fc-8a95-b3f7881ba41f}; ! Name of Object 1

