
OS:Version,
  {c43547e7-c68a-4ebf-baa5-95fb113a897d}, ! Handle
  0.9.3;                                  ! Version Identifier

OS:SizingPeriod:DesignDay,
  {ef51dd57-7711-4266-a59d-8c256de5d737}, ! Handle
  Cadillac Wexford Co Ap Ann Clg 1% Condns Enth=>MDB, ! Name
  27.1,                                   ! Maximum Dry-Bulb Temperature {C}
  13.5,                                   ! Daily Dry-Bulb Temperature Range {deltaC}
  69400,                                  ! Humidity Indicating Conditions at Maximum Dry-Bulb {BasedOnField A3}
  96657,                                  ! Barometric Pressure {Pa}
  4.8,                                    ! Wind Speed {m/s}
  250,                                    ! Wind Direction {deg}
  0,                                      ! Sky Clearness
  0,                                      ! Rain Indicator
  0,                                      ! Snow Indicator
  21,                                     ! Day of Month
  7,                                      ! Month
  SummerDesignDay,                        ! Day Type
  0,                                      ! Daylight Saving Time Indicator
  Enthalpy,                               ! Humidity Indicating Type
  ,                                       ! Humidity Indicating Day Schedule Name
  DefaultMultipliers,                     ! Dry-Bulb Temperature Range Modifier Type
  ,                                       ! Dry-Bulb Temperature Range Modifier Schedule Name
  ASHRAETau,                              ! Solar Model Indicator
  ,                                       ! Beam Solar Day Schedule Name
  ,                                       ! Diffuse Solar Day Schedule Name
  0.41,                                   ! ASHRAE Taub {dimensionless}
  2.203;                                  ! ASHRAE Taud {dimensionless}

OS:ComponentData,
  {5de68cf0-3fb6-433f-a9f7-09b55793716b}, ! Handle
  Component Data 1,                       ! Name
  {423c39b9-c582-48de-bbb6-b153b3304065}, ! UUID
  {c6502112-2137-4573-acbd-bee42d3f9125}, ! Version UUID
  1366307965,                             ! Creation Timestamp
  1366307965,                             ! Version Timestamp
  {ef51dd57-7711-4266-a59d-8c256de5d737}; ! Name of Object 1

