
OS:Version,
  {07b8fd76-457e-4578-baf2-96283fe8a90d}, ! Handle
  0.9.3;                                  ! Version Identifier

OS:SizingPeriod:DesignDay,
  {2572b33f-495d-45fe-8775-bf79e5709c46}, ! Handle
  El Paso International Ap  Ut Ann Clg 2% Condns WB=>MDB, ! Name
  29.2,                                   ! Maximum Dry-Bulb Temperature {C}
  13,                                     ! Daily Dry-Bulb Temperature Range {deltaC}
  20.3,                                   ! Humidity Indicating Conditions at Maximum Dry-Bulb {BasedOnField A3}
  87865,                                  ! Barometric Pressure {Pa}
  3.9,                                    ! Wind Speed {m/s}
  280,                                    ! Wind Direction {deg}
  0,                                      ! Sky Clearness
  0,                                      ! Rain Indicator
  0,                                      ! Snow Indicator
  21,                                     ! Day of Month
  7,                                      ! Month
  SummerDesignDay,                        ! Day Type
  0,                                      ! Daylight Saving Time Indicator
  Wetbulb,                                ! Humidity Indicating Type
  ,                                       ! Humidity Indicating Day Schedule Name
  DefaultMultipliers,                     ! Dry-Bulb Temperature Range Modifier Type
  ,                                       ! Dry-Bulb Temperature Range Modifier Schedule Name
  ASHRAETau,                              ! Solar Model Indicator
  ,                                       ! Beam Solar Day Schedule Name
  ,                                       ! Diffuse Solar Day Schedule Name
  0.605,                                  ! ASHRAE Taub {dimensionless}
  1.547;                                  ! ASHRAE Taud {dimensionless}

OS:ComponentData,
  {e489049d-cb8b-495c-8eae-d05035e41c57}, ! Handle
  Component Data 1,                       ! Name
  {d816d7ee-0363-4357-b177-c2641ce7b62d}, ! UUID
  {e5cdac47-2c0c-4e81-9246-ed4bd9169434}, ! Version UUID
  1366310693,                             ! Creation Timestamp
  1366310693,                             ! Version Timestamp
  {2572b33f-495d-45fe-8775-bf79e5709c46}; ! Name of Object 1

