
OS:Version,
  {4d9ac75b-9966-42e4-ac02-14c8a69c945b}, ! Handle
  0.9.3;                                  ! Version Identifier

OS:SizingPeriod:DesignDay,
  {e73afd67-49a2-4f81-982f-46fda8b3e655}, ! Handle
  Cortez Montezuma Co Ann Clg 2% Condns DP=>MDB, ! Name
  20.4,                                   ! Maximum Dry-Bulb Temperature {C}
  19.3,                                   ! Daily Dry-Bulb Temperature Range {deltaC}
  13,                                     ! Humidity Indicating Conditions at Maximum Dry-Bulb {BasedOnField A3}
  81459,                                  ! Barometric Pressure {Pa}
  4.8,                                    ! Wind Speed {m/s}
  290,                                    ! Wind Direction {deg}
  0,                                      ! Sky Clearness
  0,                                      ! Rain Indicator
  0,                                      ! Snow Indicator
  21,                                     ! Day of Month
  7,                                      ! Month
  SummerDesignDay,                        ! Day Type
  0,                                      ! Daylight Saving Time Indicator
  Dewpoint,                               ! Humidity Indicating Type
  ,                                       ! Humidity Indicating Day Schedule Name
  DefaultMultipliers,                     ! Dry-Bulb Temperature Range Modifier Type
  ,                                       ! Dry-Bulb Temperature Range Modifier Schedule Name
  ASHRAETau,                              ! Solar Model Indicator
  ,                                       ! Beam Solar Day Schedule Name
  ,                                       ! Diffuse Solar Day Schedule Name
  0.384,                                  ! ASHRAE Taub {dimensionless}
  2.183;                                  ! ASHRAE Taud {dimensionless}

OS:ComponentData,
  {3edb319b-9415-459c-8592-e8474963ba88}, ! Handle
  Component Data 1,                       ! Name
  {20b8b24b-d047-40fa-9703-2ee1ca48d00c}, ! UUID
  {e1ff5172-30e7-4661-9ac8-693a64894647}, ! Version UUID
  1366306669,                             ! Creation Timestamp
  1366306669,                             ! Version Timestamp
  {e73afd67-49a2-4f81-982f-46fda8b3e655}; ! Name of Object 1

