
OS:Version,
  {455acfd9-41a9-4abe-b70e-6673d3e3d26e}, ! Handle
  0.9.3;                                  ! Version Identifier

OS:SizingPeriod:DesignDay,
  {15024a7d-aea0-4a1b-b951-56119a96e5b8}, ! Handle
  Cody Muni  Awos Ann Clg 2% Condns Enth=>MDB, ! Name
  26.9,                                   ! Maximum Dry-Bulb Temperature {C}
  14.2,                                   ! Daily Dry-Bulb Temperature Range {deltaC}
  47100,                                  ! Humidity Indicating Conditions at Maximum Dry-Bulb {BasedOnField A3}
  84007,                                  ! Barometric Pressure {Pa}
  4.3,                                    ! Wind Speed {m/s}
  260,                                    ! Wind Direction {deg}
  0,                                      ! Sky Clearness
  0,                                      ! Rain Indicator
  0,                                      ! Snow Indicator
  21,                                     ! Day of Month
  7,                                      ! Month
  SummerDesignDay,                        ! Day Type
  0,                                      ! Daylight Saving Time Indicator
  Enthalpy,                               ! Humidity Indicating Type
  ,                                       ! Humidity Indicating Day Schedule Name
  DefaultMultipliers,                     ! Dry-Bulb Temperature Range Modifier Type
  ,                                       ! Dry-Bulb Temperature Range Modifier Schedule Name
  ASHRAETau,                              ! Solar Model Indicator
  ,                                       ! Beam Solar Day Schedule Name
  ,                                       ! Diffuse Solar Day Schedule Name
  0.42,                                   ! ASHRAE Taub {dimensionless}
  1.989;                                  ! ASHRAE Taud {dimensionless}

