
OS:Version,
  {8c7e8fe6-995b-4114-a71e-facc544800a6}, ! Handle
  0.9.3;                                  ! Version Identifier

OS:SizingPeriod:DesignDay,
  {af3f248d-2c55-4c75-aec9-e718cb274004}, ! Handle
  Cheyenne Municipal Arpt Ann Htg 99.6% Condns DB, ! Name
  -21.3,                                  ! Maximum Dry-Bulb Temperature {C}
  0,                                      ! Daily Dry-Bulb Temperature Range {deltaC}
  -21.3,                                  ! Humidity Indicating Conditions at Maximum Dry-Bulb {BasedOnField A3}
  80817,                                  ! Barometric Pressure {Pa}
  4.2,                                    ! Wind Speed {m/s}
  0,                                      ! Wind Direction {deg}
  0,                                      ! Sky Clearness
  0,                                      ! Rain Indicator
  0,                                      ! Snow Indicator
  21,                                     ! Day of Month
  12,                                     ! Month
  WinterDesignDay,                        ! Day Type
  0,                                      ! Daylight Saving Time Indicator
  Wetbulb,                                ! Humidity Indicating Type
  ,                                       ! Humidity Indicating Day Schedule Name
  DefaultMultipliers,                     ! Dry-Bulb Temperature Range Modifier Type
  ,                                       ! Dry-Bulb Temperature Range Modifier Schedule Name
  ASHRAEClearSky;                         ! Solar Model Indicator

OS:ComponentData,
  {78732fa5-9dad-4f7e-814d-871dcce182d9}, ! Handle
  Component Data 1,                       ! Name
  {8b3017e3-ac9e-4f51-b79a-d9fc6d09bc06}, ! UUID
  {f3d5c24d-163b-4495-b423-b29cdac0040e}, ! Version UUID
  1366311710,                             ! Creation Timestamp
  1366311710,                             ! Version Timestamp
  {af3f248d-2c55-4c75-aec9-e718cb274004}; ! Name of Object 1

