
OS:Version,
  {d6293f38-2f55-4bf2-ae7a-1b8671319467}, ! Handle
  0.9.3;                                  ! Version Identifier

OS:SizingPeriod:DesignDay,
  {16e6c251-1806-4059-a9d4-c1dd2b1a775d}, ! Handle
  Corpus Christi Nas Ann Clg .4% Condns DP=>MDB, ! Name
  29.4,                                   ! Maximum Dry-Bulb Temperature {C}
  6.7,                                    ! Daily Dry-Bulb Temperature Range {deltaC}
  27.3,                                   ! Humidity Indicating Conditions at Maximum Dry-Bulb {BasedOnField A3}
  101253,                                 ! Barometric Pressure {Pa}
  6.1,                                    ! Wind Speed {m/s}
  150,                                    ! Wind Direction {deg}
  0,                                      ! Sky Clearness
  0,                                      ! Rain Indicator
  0,                                      ! Snow Indicator
  21,                                     ! Day of Month
  8,                                      ! Month
  SummerDesignDay,                        ! Day Type
  0,                                      ! Daylight Saving Time Indicator
  Dewpoint,                               ! Humidity Indicating Type
  ,                                       ! Humidity Indicating Day Schedule Name
  DefaultMultipliers,                     ! Dry-Bulb Temperature Range Modifier Type
  ,                                       ! Dry-Bulb Temperature Range Modifier Schedule Name
  ASHRAETau,                              ! Solar Model Indicator
  ,                                       ! Beam Solar Day Schedule Name
  ,                                       ! Diffuse Solar Day Schedule Name
  0.465,                                  ! ASHRAE Taub {dimensionless}
  2.117;                                  ! ASHRAE Taud {dimensionless}

OS:ComponentData,
  {97538510-f6ed-45f9-af90-68e61a78a5d2}, ! Handle
  Component Data 1,                       ! Name
  {fd4a53e3-6340-4e8e-b8c7-fa26377c898d}, ! UUID
  {e43080d4-5fe1-41c3-a1ac-3b9da9fea21c}, ! Version UUID
  1366310635,                             ! Creation Timestamp
  1366310635,                             ! Version Timestamp
  {16e6c251-1806-4059-a9d4-c1dd2b1a775d}; ! Name of Object 1

