
OS:Version,
  {9f9bcfd3-317e-4d5f-a710-5aac6e5715e9}, ! Handle
  0.9.3;                                  ! Version Identifier

OS:SizingPeriod:DesignDay,
  {ed33510b-aec4-4325-be80-0eea9a020c15}, ! Handle
  Lebanon Municipal Ann Clg 2% Condns Enth=>MDB, ! Name
  25.6,                                   ! Maximum Dry-Bulb Temperature {C}
  12.9,                                   ! Daily Dry-Bulb Temperature Range {deltaC}
  62800,                                  ! Humidity Indicating Conditions at Maximum Dry-Bulb {BasedOnField A3}
  99158,                                  ! Barometric Pressure {Pa}
  4,                                      ! Wind Speed {m/s}
  220,                                    ! Wind Direction {deg}
  0,                                      ! Sky Clearness
  0,                                      ! Rain Indicator
  0,                                      ! Snow Indicator
  21,                                     ! Day of Month
  7,                                      ! Month
  SummerDesignDay,                        ! Day Type
  0,                                      ! Daylight Saving Time Indicator
  Enthalpy,                               ! Humidity Indicating Type
  ,                                       ! Humidity Indicating Day Schedule Name
  DefaultMultipliers,                     ! Dry-Bulb Temperature Range Modifier Type
  ,                                       ! Dry-Bulb Temperature Range Modifier Schedule Name
  ASHRAETau,                              ! Solar Model Indicator
  ,                                       ! Beam Solar Day Schedule Name
  ,                                       ! Diffuse Solar Day Schedule Name
  0.443,                                  ! ASHRAE Taub {dimensionless}
  2.066;                                  ! ASHRAE Taud {dimensionless}

OS:ComponentData,
  {f133cf18-3f10-417a-b8a8-52b491891ed7}, ! Handle
  Component Data 1,                       ! Name
  {e0bbcad1-d398-46d5-b02d-2b7167ef58db}, ! UUID
  {3df21415-4654-4d3b-a8e6-78afd3b01158}, ! Version UUID
  1366309259,                             ! Creation Timestamp
  1366309259,                             ! Version Timestamp
  {ed33510b-aec4-4325-be80-0eea9a020c15}; ! Name of Object 1

