
OS:Version,
  {f0b03204-0389-43c7-b714-0f8a07bff2c9}, ! Handle
  0.9.3;                                  ! Version Identifier

OS:SizingPeriod:DesignDay,
  {ca19bcdc-821c-46ad-8326-04cac42ab3e9}, ! Handle
  Dayton Wright Patterson Afb Ann Clg 2% Condns Enth=>MDB, ! Name
  28.5,                                   ! Maximum Dry-Bulb Temperature {C}
  11,                                     ! Daily Dry-Bulb Temperature Range {deltaC}
  71600,                                  ! Humidity Indicating Conditions at Maximum Dry-Bulb {BasedOnField A3}
  98358,                                  ! Barometric Pressure {Pa}
  3.9,                                    ! Wind Speed {m/s}
  240,                                    ! Wind Direction {deg}
  0,                                      ! Sky Clearness
  0,                                      ! Rain Indicator
  0,                                      ! Snow Indicator
  21,                                     ! Day of Month
  7,                                      ! Month
  SummerDesignDay,                        ! Day Type
  0,                                      ! Daylight Saving Time Indicator
  Enthalpy,                               ! Humidity Indicating Type
  ,                                       ! Humidity Indicating Day Schedule Name
  DefaultMultipliers,                     ! Dry-Bulb Temperature Range Modifier Type
  ,                                       ! Dry-Bulb Temperature Range Modifier Schedule Name
  ASHRAETau,                              ! Solar Model Indicator
  ,                                       ! Beam Solar Day Schedule Name
  ,                                       ! Diffuse Solar Day Schedule Name
  0.484,                                  ! ASHRAE Taub {dimensionless}
  1.94;                                   ! ASHRAE Taud {dimensionless}

OS:ComponentData,
  {b5354a12-a5c5-4f32-af74-d080ca9472cb}, ! Handle
  Component Data 1,                       ! Name
  {946919e0-5edf-4571-98d6-b03cc4f9dba6}, ! UUID
  {ac4722f6-5bdc-452d-9570-6ee67621bd8b}, ! Version UUID
  1366309814,                             ! Creation Timestamp
  1366309814,                             ! Version Timestamp
  {ca19bcdc-821c-46ad-8326-04cac42ab3e9}; ! Name of Object 1

