
OS:Version,
  {f69ad06f-b7bf-4df6-9b75-9131ee5dc58e}, ! Handle
  0.9.3;                                  ! Version Identifier

OS:SizingPeriod:DesignDay,
  {25e4af04-deea-47c7-b6fe-c8f0d15f761e}, ! Handle
  Fresno Yosemite Intl Ap Ann Clg 2% Condns WB=>MDB, ! Name
  34.4,                                   ! Maximum Dry-Bulb Temperature {C}
  16.4,                                   ! Daily Dry-Bulb Temperature Range {deltaC}
  21.5,                                   ! Humidity Indicating Conditions at Maximum Dry-Bulb {BasedOnField A3}
  100106,                                 ! Barometric Pressure {Pa}
  3.7,                                    ! Wind Speed {m/s}
  300,                                    ! Wind Direction {deg}
  0,                                      ! Sky Clearness
  0,                                      ! Rain Indicator
  0,                                      ! Snow Indicator
  21,                                     ! Day of Month
  7,                                      ! Month
  SummerDesignDay,                        ! Day Type
  0,                                      ! Daylight Saving Time Indicator
  Wetbulb,                                ! Humidity Indicating Type
  ,                                       ! Humidity Indicating Day Schedule Name
  DefaultMultipliers,                     ! Dry-Bulb Temperature Range Modifier Type
  ,                                       ! Dry-Bulb Temperature Range Modifier Schedule Name
  ASHRAETau,                              ! Solar Model Indicator
  ,                                       ! Beam Solar Day Schedule Name
  ,                                       ! Diffuse Solar Day Schedule Name
  0.428,                                  ! ASHRAE Taub {dimensionless}
  2.152;                                  ! ASHRAE Taud {dimensionless}

OS:ComponentData,
  {481c27d0-2bf7-4744-bd65-a672368fc9d1}, ! Handle
  Component Data 1,                       ! Name
  {34327ffd-adbb-4974-8314-05ff76b01737}, ! UUID
  {49342379-e8b8-4e1f-b09e-ac2ddab32bcf}, ! Version UUID
  1366306440,                             ! Creation Timestamp
  1366306440,                             ! Version Timestamp
  {25e4af04-deea-47c7-b6fe-c8f0d15f761e}; ! Name of Object 1

