
OS:Version,
  {34b344df-27c9-477d-b5bc-2fcdeafc9bd6}, ! Handle
  0.9.3;                                  ! Version Identifier

OS:SizingPeriod:DesignDay,
  {b2917853-ceb2-4e3f-ba0f-847960ea2e5a}, ! Handle
  Carlsbad Palomar Ann Clg 1% Condns WB=>MDB, ! Name
  23.9,                                   ! Maximum Dry-Bulb Temperature {C}
  5.3,                                    ! Daily Dry-Bulb Temperature Range {deltaC}
  20.5,                                   ! Humidity Indicating Conditions at Maximum Dry-Bulb {BasedOnField A3}
  100129,                                 ! Barometric Pressure {Pa}
  3.3,                                    ! Wind Speed {m/s}
  250,                                    ! Wind Direction {deg}
  0,                                      ! Sky Clearness
  0,                                      ! Rain Indicator
  0,                                      ! Snow Indicator
  21,                                     ! Day of Month
  8,                                      ! Month
  SummerDesignDay,                        ! Day Type
  0,                                      ! Daylight Saving Time Indicator
  Wetbulb,                                ! Humidity Indicating Type
  ,                                       ! Humidity Indicating Day Schedule Name
  DefaultMultipliers,                     ! Dry-Bulb Temperature Range Modifier Type
  ,                                       ! Dry-Bulb Temperature Range Modifier Schedule Name
  ASHRAETau,                              ! Solar Model Indicator
  ,                                       ! Beam Solar Day Schedule Name
  ,                                       ! Diffuse Solar Day Schedule Name
  0.423,                                  ! ASHRAE Taub {dimensionless}
  2.195;                                  ! ASHRAE Taud {dimensionless}

OS:ComponentData,
  {157ecb69-495c-4bbd-9c21-719cd6d5c638}, ! Handle
  Component Data 1,                       ! Name
  {687e65d1-7a5f-478d-8c71-b425e93b9449}, ! UUID
  {36cc7771-22c2-4e38-8a6f-17121b269ba2}, ! Version UUID
  1366306403,                             ! Creation Timestamp
  1366306403,                             ! Version Timestamp
  {b2917853-ceb2-4e3f-ba0f-847960ea2e5a}; ! Name of Object 1

