
OS:Version,
  {3a82012c-42bf-4b3a-b091-98d5bfe1615e}, ! Handle
  0.9.3;                                  ! Version Identifier

OS:SizingPeriod:DesignDay,
  {22e22862-d677-438f-b2ee-ddc9ed193cb4}, ! Handle
  Cincinnati Northern Ky Ap Ann Clg 2% Condns Enth=>MDB, ! Name
  28.4,                                   ! Maximum Dry-Bulb Temperature {C}
  10.3,                                   ! Daily Dry-Bulb Temperature Range {deltaC}
  72200,                                  ! Humidity Indicating Conditions at Maximum Dry-Bulb {BasedOnField A3}
  98182,                                  ! Barometric Pressure {Pa}
  4.3,                                    ! Wind Speed {m/s}
  230,                                    ! Wind Direction {deg}
  0,                                      ! Sky Clearness
  0,                                      ! Rain Indicator
  0,                                      ! Snow Indicator
  21,                                     ! Day of Month
  7,                                      ! Month
  SummerDesignDay,                        ! Day Type
  0,                                      ! Daylight Saving Time Indicator
  Enthalpy,                               ! Humidity Indicating Type
  ,                                       ! Humidity Indicating Day Schedule Name
  DefaultMultipliers,                     ! Dry-Bulb Temperature Range Modifier Type
  ,                                       ! Dry-Bulb Temperature Range Modifier Schedule Name
  ASHRAETau,                              ! Solar Model Indicator
  ,                                       ! Beam Solar Day Schedule Name
  ,                                       ! Diffuse Solar Day Schedule Name
  0.493,                                  ! ASHRAE Taub {dimensionless}
  1.911;                                  ! ASHRAE Taud {dimensionless}

OS:ComponentData,
  {aaca82f4-0b69-49da-b371-04e3f1eabefa}, ! Handle
  Component Data 1,                       ! Name
  {7324ddea-8514-4a9d-88f7-c13c0ea8ab50}, ! UUID
  {e5ca3273-63a2-4852-9b34-67011543811a}, ! Version UUID
  1366307622,                             ! Creation Timestamp
  1366307622,                             ! Version Timestamp
  {22e22862-d677-438f-b2ee-ddc9ed193cb4}; ! Name of Object 1

