
OS:Version,
  {1fbf9691-879a-499e-9a3c-cc5384cc50ca}, ! Handle
  0.9.3;                                  ! Version Identifier

OS:SizingPeriod:DesignDay,
  {7648e1b0-1654-45d6-af42-1aedf04919a9}, ! Handle
  Cincinnati Northern Ky Ap Ann Clg .4% Condns DP=>MDB, ! Name
  28,                                     ! Maximum Dry-Bulb Temperature {C}
  10.3,                                   ! Daily Dry-Bulb Temperature Range {deltaC}
  23.6,                                   ! Humidity Indicating Conditions at Maximum Dry-Bulb {BasedOnField A3}
  98182,                                  ! Barometric Pressure {Pa}
  4.3,                                    ! Wind Speed {m/s}
  230,                                    ! Wind Direction {deg}
  0,                                      ! Sky Clearness
  0,                                      ! Rain Indicator
  0,                                      ! Snow Indicator
  21,                                     ! Day of Month
  7,                                      ! Month
  SummerDesignDay,                        ! Day Type
  0,                                      ! Daylight Saving Time Indicator
  Dewpoint,                               ! Humidity Indicating Type
  ,                                       ! Humidity Indicating Day Schedule Name
  DefaultMultipliers,                     ! Dry-Bulb Temperature Range Modifier Type
  ,                                       ! Dry-Bulb Temperature Range Modifier Schedule Name
  ASHRAETau,                              ! Solar Model Indicator
  ,                                       ! Beam Solar Day Schedule Name
  ,                                       ! Diffuse Solar Day Schedule Name
  0.493,                                  ! ASHRAE Taub {dimensionless}
  1.911;                                  ! ASHRAE Taud {dimensionless}

OS:ComponentData,
  {2d4b0785-d98a-48ec-b1a4-1b7d6a22f021}, ! Handle
  Component Data 1,                       ! Name
  {be241484-eece-48e2-a710-46b729d85041}, ! UUID
  {608f9a95-3be4-42d3-b7ac-8f388d0d81e3}, ! Version UUID
  1366307622,                             ! Creation Timestamp
  1366307622,                             ! Version Timestamp
  {7648e1b0-1654-45d6-af42-1aedf04919a9}; ! Name of Object 1

