
OS:Version,
  {0e7abd1d-f847-431e-a4cb-598b1ee3dd1a}, ! Handle
  0.9.3;                                  ! Version Identifier

OS:SizingPeriod:DesignDay,
  {f3890610-96b1-4381-bd6a-9944a402bed1}, ! Handle
  Des Moines Intl Ap Ann Clg 2% Condns DB=>MWB, ! Name
  30.7,                                   ! Maximum Dry-Bulb Temperature {C}
  10.1,                                   ! Daily Dry-Bulb Temperature Range {deltaC}
  23,                                     ! Humidity Indicating Conditions at Maximum Dry-Bulb {BasedOnField A3}
  97866,                                  ! Barometric Pressure {Pa}
  5.4,                                    ! Wind Speed {m/s}
  180,                                    ! Wind Direction {deg}
  0,                                      ! Sky Clearness
  0,                                      ! Rain Indicator
  0,                                      ! Snow Indicator
  21,                                     ! Day of Month
  7,                                      ! Month
  SummerDesignDay,                        ! Day Type
  0,                                      ! Daylight Saving Time Indicator
  Wetbulb,                                ! Humidity Indicating Type
  ,                                       ! Humidity Indicating Day Schedule Name
  DefaultMultipliers,                     ! Dry-Bulb Temperature Range Modifier Type
  ,                                       ! Dry-Bulb Temperature Range Modifier Schedule Name
  ASHRAETau,                              ! Solar Model Indicator
  ,                                       ! Beam Solar Day Schedule Name
  ,                                       ! Diffuse Solar Day Schedule Name
  0.425,                                  ! ASHRAE Taub {dimensionless}
  2.17;                                   ! ASHRAE Taud {dimensionless}

OS:ComponentData,
  {cef49471-c858-473d-9310-5d85f39bec6f}, ! Handle
  Component Data 1,                       ! Name
  {fda6aebe-265b-4cfa-a604-eba43b98cb65}, ! UUID
  {88822f23-2200-4f19-a72c-4c97c4eb0d82}, ! Version UUID
  1366307181,                             ! Creation Timestamp
  1366307181,                             ! Version Timestamp
  {f3890610-96b1-4381-bd6a-9944a402bed1}; ! Name of Object 1

