
OS:Version,
  {19eeec05-4303-4dfc-81bd-336241029851}, ! Handle
  0.9.3;                                  ! Version Identifier

OS:SizingPeriod:DesignDay,
  {cab88bb0-e71b-45e1-b2b7-787248cc32fd}, ! Handle
  ALLENTOWN Ann Clg 2% Condns DP=>MDB,    ! Name
  25.8,                                   ! Maximum Dry-Bulb Temperature {C}
  10.7,                                   ! Daily Dry-Bulb Temperature Range {deltaC}
  21.8,                                   ! Humidity Indicating Conditions at Maximum Dry-Bulb {BasedOnField A3}
  99927,                                  ! Barometric Pressure {Pa}
  4.6,                                    ! Wind Speed {m/s}
  240,                                    ! Wind Direction {deg}
  0,                                      ! Sky Clearness
  0,                                      ! Rain Indicator
  0,                                      ! Snow Indicator
  21,                                     ! Day of Month
  7,                                      ! Month
  SummerDesignDay,                        ! Day Type
  0,                                      ! Daylight Saving Time Indicator
  Dewpoint,                               ! Humidity Indicating Type
  ,                                       ! Humidity Indicating Day Schedule Name
  DefaultMultipliers,                     ! Dry-Bulb Temperature Range Modifier Type
  ,                                       ! Dry-Bulb Temperature Range Modifier Schedule Name
  ASHRAETau,                              ! Solar Model Indicator
  ,                                       ! Beam Solar Day Schedule Name
  ,                                       ! Diffuse Solar Day Schedule Name
  0.504,                                  ! ASHRAE Taub {dimensionless}
  1.885;                                  ! ASHRAE Taud {dimensionless}

OS:ComponentData,
  {d6c02fd5-4b4c-4327-b7af-e08b4bf25ff8}, ! Handle
  Component Data 1,                       ! Name
  {69f55ba9-ca0d-4904-baf9-6b75cdcb735a}, ! UUID
  {8235ca66-4438-4f33-9e19-8c05ab4caf45}, ! Version UUID
  1366310137,                             ! Creation Timestamp
  1366310137,                             ! Version Timestamp
  {cab88bb0-e71b-45e1-b2b7-787248cc32fd}; ! Name of Object 1

