
OS:Version,
  {3ecdd164-f441-45ef-8712-335ccebc6bca}, ! Handle
  0.9.3;                                  ! Version Identifier

OS:SizingPeriod:DesignDay,
  {7a0fb4d9-42a6-4ddc-8abd-497827145cc9}, ! Handle
  Arcata Airport Ann Clg .4% Condns DB=>MWB, ! Name
  21.6,                                   ! Maximum Dry-Bulb Temperature {C}
  6.5,                                    ! Daily Dry-Bulb Temperature Range {deltaC}
  15.2,                                   ! Humidity Indicating Conditions at Maximum Dry-Bulb {BasedOnField A3}
  100582,                                 ! Barometric Pressure {Pa}
  4.3,                                    ! Wind Speed {m/s}
  320,                                    ! Wind Direction {deg}
  0,                                      ! Sky Clearness
  0,                                      ! Rain Indicator
  0,                                      ! Snow Indicator
  21,                                     ! Day of Month
  8,                                      ! Month
  SummerDesignDay,                        ! Day Type
  0,                                      ! Daylight Saving Time Indicator
  Wetbulb,                                ! Humidity Indicating Type
  ,                                       ! Humidity Indicating Day Schedule Name
  DefaultMultipliers,                     ! Dry-Bulb Temperature Range Modifier Type
  ,                                       ! Dry-Bulb Temperature Range Modifier Schedule Name
  ASHRAETau,                              ! Solar Model Indicator
  ,                                       ! Beam Solar Day Schedule Name
  ,                                       ! Diffuse Solar Day Schedule Name
  0.365,                                  ! ASHRAE Taub {dimensionless}
  2.513;                                  ! ASHRAE Taud {dimensionless}

OS:ComponentData,
  {e7b8b912-2d12-4720-a791-5304b0f5ae22}, ! Handle
  Component Data 1,                       ! Name
  {34304fbe-115c-4a5f-a399-fa646961c7d0}, ! UUID
  {772ae806-0ab5-45cd-8ef9-08f930076ce2}, ! Version UUID
  1366306353,                             ! Creation Timestamp
  1366306353,                             ! Version Timestamp
  {7a0fb4d9-42a6-4ddc-8abd-497827145cc9}; ! Name of Object 1

