
OS:Version,
  {a89729ae-3275-4c93-ace4-508af6657ba2}, ! Handle
  0.9.3;                                  ! Version Identifier

OS:SizingPeriod:DesignDay,
  {8d8f035a-93f7-43fb-9f9a-24cdd9e56028}, ! Handle
  BISMARCK Ann Htg Wind 99.6% Condns WS=>MCDB, ! Name
  -6.9,                                   ! Maximum Dry-Bulb Temperature {C}
  0,                                      ! Daily Dry-Bulb Temperature Range {deltaC}
  -6.9,                                   ! Humidity Indicating Conditions at Maximum Dry-Bulb {BasedOnField A3}
  95438,                                  ! Barometric Pressure {Pa}
  13.9,                                   ! Wind Speed {m/s}
  320,                                    ! Wind Direction {deg}
  0,                                      ! Sky Clearness
  0,                                      ! Rain Indicator
  0,                                      ! Snow Indicator
  21,                                     ! Day of Month
  1,                                      ! Month
  WinterDesignDay,                        ! Day Type
  0,                                      ! Daylight Saving Time Indicator
  Wetbulb,                                ! Humidity Indicating Type
  ,                                       ! Humidity Indicating Day Schedule Name
  DefaultMultipliers,                     ! Dry-Bulb Temperature Range Modifier Type
  ,                                       ! Dry-Bulb Temperature Range Modifier Schedule Name
  ASHRAEClearSky;                         ! Solar Model Indicator

OS:ComponentData,
  {dd6b6b81-27af-4357-8e7e-e7491e3a6e70}, ! Handle
  Component Data 1,                       ! Name
  {525bc862-45bc-422d-b316-36db56de7e72}, ! UUID
  {f378eb77-9ee6-4383-8a1c-87acbc5474fa}, ! Version UUID
  1366308997,                             ! Creation Timestamp
  1366308997,                             ! Version Timestamp
  {8d8f035a-93f7-43fb-9f9a-24cdd9e56028}; ! Name of Object 1

