
OS:Version,
  {e7d0251a-4ae3-4959-bba8-25458d78cb23}, ! Handle
  0.9.3;                                  ! Version Identifier

OS:SizingPeriod:DesignDay,
  {e3e6bc41-f0a9-452c-91a5-a801c27f2cd7}, ! Handle
  Keokuk Muni Ann Hum_n 99% Condns DP=>MCDB, ! Name
  -12.4,                                  ! Maximum Dry-Bulb Temperature {C}
  0,                                      ! Daily Dry-Bulb Temperature Range {deltaC}
  -19.3,                                  ! Humidity Indicating Conditions at Maximum Dry-Bulb {BasedOnField A3}
  98886,                                  ! Barometric Pressure {Pa}
  3.6,                                    ! Wind Speed {m/s}
  290,                                    ! Wind Direction {deg}
  0,                                      ! Sky Clearness
  0,                                      ! Rain Indicator
  0,                                      ! Snow Indicator
  21,                                     ! Day of Month
  1,                                      ! Month
  WinterDesignDay,                        ! Day Type
  0,                                      ! Daylight Saving Time Indicator
  Dewpoint,                               ! Humidity Indicating Type
  ,                                       ! Humidity Indicating Day Schedule Name
  DefaultMultipliers,                     ! Dry-Bulb Temperature Range Modifier Type
  ,                                       ! Dry-Bulb Temperature Range Modifier Schedule Name
  ASHRAEClearSky;                         ! Solar Model Indicator

OS:ComponentData,
  {bd4bafd0-5e74-4062-bdec-4b8d663848d2}, ! Handle
  Component Data 1,                       ! Name
  {664fd924-9d04-4cb9-89e5-62e7355cb1a1}, ! UUID
  {4f67a13c-e0a1-45d3-ba80-e70e9d89d4e0}, ! Version UUID
  1366307202,                             ! Creation Timestamp
  1366307202,                             ! Version Timestamp
  {e3e6bc41-f0a9-452c-91a5-a801c27f2cd7}; ! Name of Object 1

