
OS:Version,
  {883bf272-ec8c-4f45-a363-dcac6f2511ef}, ! Handle
  0.9.3;                                  ! Version Identifier

OS:SizingPeriod:DesignDay,
  {f609da4b-2e12-4264-a9d6-2295cfeb8cf2}, ! Handle
  Concord Ann Clg 2% Condns Enth=>MDB,    ! Name
  26.5,                                   ! Maximum Dry-Bulb Temperature {C}
  12.8,                                   ! Daily Dry-Bulb Temperature Range {deltaC}
  64200,                                  ! Humidity Indicating Conditions at Maximum Dry-Bulb {BasedOnField A3}
  100070,                                 ! Barometric Pressure {Pa}
  4.4,                                    ! Wind Speed {m/s}
  230,                                    ! Wind Direction {deg}
  0,                                      ! Sky Clearness
  0,                                      ! Rain Indicator
  0,                                      ! Snow Indicator
  21,                                     ! Day of Month
  7,                                      ! Month
  SummerDesignDay,                        ! Day Type
  0,                                      ! Daylight Saving Time Indicator
  Enthalpy,                               ! Humidity Indicating Type
  ,                                       ! Humidity Indicating Day Schedule Name
  DefaultMultipliers,                     ! Dry-Bulb Temperature Range Modifier Type
  ,                                       ! Dry-Bulb Temperature Range Modifier Schedule Name
  ASHRAETau,                              ! Solar Model Indicator
  ,                                       ! Beam Solar Day Schedule Name
  ,                                       ! Diffuse Solar Day Schedule Name
  0.459,                                  ! ASHRAE Taub {dimensionless}
  2.014;                                  ! ASHRAE Taud {dimensionless}

OS:ComponentData,
  {b76d706d-388e-4f2b-a60b-84be7c9008b4}, ! Handle
  Component Data 1,                       ! Name
  {9a9c37df-f568-4cfa-9ae8-92fb742380bd}, ! UUID
  {d730e34d-1bd7-43ac-a020-18ec2d366c08}, ! Version UUID
  1366309228,                             ! Creation Timestamp
  1366309228,                             ! Version Timestamp
  {f609da4b-2e12-4264-a9d6-2295cfeb8cf2}; ! Name of Object 1

