
OS:Version,
  {1383ae4f-cbff-414a-8cba-ce6e863f27b1}, ! Handle
  0.9.3;                                  ! Version Identifier

OS:SizingPeriod:DesignDay,
  {83d4085a-635e-4e9a-adb7-debaa9f843f0}, ! Handle
  Hilo International Ap Ann Clg 2% Condns Enth=>MDB, ! Name
  27.3,                                   ! Maximum Dry-Bulb Temperature {C}
  7,                                      ! Daily Dry-Bulb Temperature Range {deltaC}
  71900,                                  ! Humidity Indicating Conditions at Maximum Dry-Bulb {BasedOnField A3}
  101217,                                 ! Barometric Pressure {Pa}
  4.8,                                    ! Wind Speed {m/s}
  90,                                     ! Wind Direction {deg}
  0,                                      ! Sky Clearness
  0,                                      ! Rain Indicator
  0,                                      ! Snow Indicator
  21,                                     ! Day of Month
  8,                                      ! Month
  SummerDesignDay,                        ! Day Type
  0,                                      ! Daylight Saving Time Indicator
  Enthalpy,                               ! Humidity Indicating Type
  ,                                       ! Humidity Indicating Day Schedule Name
  DefaultMultipliers,                     ! Dry-Bulb Temperature Range Modifier Type
  ,                                       ! Dry-Bulb Temperature Range Modifier Schedule Name
  ASHRAETau,                              ! Solar Model Indicator
  ,                                       ! Beam Solar Day Schedule Name
  ,                                       ! Diffuse Solar Day Schedule Name
  0.411,                                  ! ASHRAE Taub {dimensionless}
  2.427;                                  ! ASHRAE Taud {dimensionless}

OS:ComponentData,
  {0aee32ea-3622-4b85-987f-9812fcaf1afb}, ! Handle
  Component Data 1,                       ! Name
  {665bb6a2-9477-4b10-be0f-c767bb27b710}, ! UUID
  {e32804a0-0106-4c0e-8b3e-12952819ff81}, ! Version UUID
  1366307085,                             ! Creation Timestamp
  1366307085,                             ! Version Timestamp
  {83d4085a-635e-4e9a-adb7-debaa9f843f0}; ! Name of Object 1

