
OS:Version,
  {ffb224c8-52fd-41c1-b91e-0e90fe33f0ad}, ! Handle
  0.9.3;                                  ! Version Identifier

OS:SizingPeriod:DesignDay,
  {acdbcb6f-a03d-46ea-94fe-88efc7b41640}, ! Handle
  BETTLES Ann Clg .4% Condns WB=>MDB,     ! Name
  23.8,                                   ! Maximum Dry-Bulb Temperature {C}
  10.6,                                   ! Daily Dry-Bulb Temperature Range {deltaC}
  16.8,                                   ! Humidity Indicating Conditions at Maximum Dry-Bulb {BasedOnField A3}
  98886,                                  ! Barometric Pressure {Pa}
  3.3,                                    ! Wind Speed {m/s}
  220,                                    ! Wind Direction {deg}
  0,                                      ! Sky Clearness
  0,                                      ! Rain Indicator
  0,                                      ! Snow Indicator
  21,                                     ! Day of Month
  7,                                      ! Month
  SummerDesignDay,                        ! Day Type
  0,                                      ! Daylight Saving Time Indicator
  Wetbulb,                                ! Humidity Indicating Type
  ,                                       ! Humidity Indicating Day Schedule Name
  DefaultMultipliers,                     ! Dry-Bulb Temperature Range Modifier Type
  ,                                       ! Dry-Bulb Temperature Range Modifier Schedule Name
  ASHRAETau,                              ! Solar Model Indicator
  ,                                       ! Beam Solar Day Schedule Name
  ,                                       ! Diffuse Solar Day Schedule Name
  0.389,                                  ! ASHRAE Taub {dimensionless}
  2.131;                                  ! ASHRAE Taud {dimensionless}

OS:ComponentData,
  {4f7fd203-f31e-4da2-8758-75a3ec02bcb1}, ! Handle
  Component Data 1,                       ! Name
  {00856726-f095-4092-a3ea-f759d659fe82}, ! UUID
  {a01e07f4-d1f0-447c-8644-16e8de815c75}, ! Version UUID
  1366304762,                             ! Creation Timestamp
  1366304762,                             ! Version Timestamp
  {acdbcb6f-a03d-46ea-94fe-88efc7b41640}; ! Name of Object 1

