
OS:Version,
  {b9f26a07-47b2-4c64-8bff-f3b60e8a26e9}, ! Handle
  0.9.3;                                  ! Version Identifier

OS:SizingPeriod:DesignDay,
  {27e5253a-1b5e-4168-94d9-a98a4e68484b}, ! Handle
  FORT_SMITH Ann Clg .4% Condns WB=>MDB,  ! Name
  33.6,                                   ! Maximum Dry-Bulb Temperature {C}
  11.5,                                   ! Daily Dry-Bulb Temperature Range {deltaC}
  26.4,                                   ! Humidity Indicating Conditions at Maximum Dry-Bulb {BasedOnField A3}
  99643,                                  ! Barometric Pressure {Pa}
  3.7,                                    ! Wind Speed {m/s}
  230,                                    ! Wind Direction {deg}
  0,                                      ! Sky Clearness
  0,                                      ! Rain Indicator
  0,                                      ! Snow Indicator
  21,                                     ! Day of Month
  7,                                      ! Month
  SummerDesignDay,                        ! Day Type
  0,                                      ! Daylight Saving Time Indicator
  Wetbulb,                                ! Humidity Indicating Type
  ,                                       ! Humidity Indicating Day Schedule Name
  DefaultMultipliers,                     ! Dry-Bulb Temperature Range Modifier Type
  ,                                       ! Dry-Bulb Temperature Range Modifier Schedule Name
  ASHRAETau,                              ! Solar Model Indicator
  ,                                       ! Beam Solar Day Schedule Name
  ,                                       ! Diffuse Solar Day Schedule Name
  0.49,                                   ! ASHRAE Taub {dimensionless}
  1.983;                                  ! ASHRAE Taud {dimensionless}

OS:ComponentData,
  {14b0341a-be8b-488c-b431-fdc8c56caec7}, ! Handle
  Component Data 1,                       ! Name
  {f1432d43-63cb-4113-b14c-8d9fffe6bcdc}, ! UUID
  {526634e3-5e80-4604-b545-621bce65fb36}, ! Version UUID
  1366306207,                             ! Creation Timestamp
  1366306207,                             ! Version Timestamp
  {27e5253a-1b5e-4168-94d9-a98a4e68484b}; ! Name of Object 1

