
OS:Version,
  {288eae04-9d72-4bc5-8f1d-63d1cc7c483b}, ! Handle
  0.9.3;                                  ! Version Identifier

OS:SizingPeriod:DesignDay,
  {ac8272d7-8066-49de-808b-2e6df3f2a671}, ! Handle
  Lakeview  Awos Ann Clg 1% Condns DP=>MDB, ! Name
  19.3,                                   ! Maximum Dry-Bulb Temperature {C}
  18.9,                                   ! Daily Dry-Bulb Temperature Range {deltaC}
  10,                                     ! Humidity Indicating Conditions at Maximum Dry-Bulb {BasedOnField A3}
  85170,                                  ! Barometric Pressure {Pa}
  3.5,                                    ! Wind Speed {m/s}
  160,                                    ! Wind Direction {deg}
  0,                                      ! Sky Clearness
  0,                                      ! Rain Indicator
  0,                                      ! Snow Indicator
  21,                                     ! Day of Month
  7,                                      ! Month
  SummerDesignDay,                        ! Day Type
  0,                                      ! Daylight Saving Time Indicator
  Dewpoint,                               ! Humidity Indicating Type
  ,                                       ! Humidity Indicating Day Schedule Name
  DefaultMultipliers,                     ! Dry-Bulb Temperature Range Modifier Type
  ,                                       ! Dry-Bulb Temperature Range Modifier Schedule Name
  ASHRAETau,                              ! Solar Model Indicator
  ,                                       ! Beam Solar Day Schedule Name
  ,                                       ! Diffuse Solar Day Schedule Name
  0.355,                                  ! ASHRAE Taub {dimensionless}
  2.327;                                  ! ASHRAE Taud {dimensionless}

OS:ComponentData,
  {73f8accb-c22b-41aa-8920-b5d37aaf15fe}, ! Handle
  Component Data 1,                       ! Name
  {bdb413bf-4ec6-47aa-b499-a0574e0cf1ce}, ! UUID
  {154b78f9-281c-424b-b73d-dd84050aff6f}, ! Version UUID
  1366310027,                             ! Creation Timestamp
  1366310027,                             ! Version Timestamp
  {ac8272d7-8066-49de-808b-2e6df3f2a671}; ! Name of Object 1

