
OS:Version,
  {83e8fe5e-89b6-4738-adc1-ccbda1c31c2d}, ! Handle
  0.9.3;                                  ! Version Identifier

OS:SizingPeriod:DesignDay,
  {160d97ab-dacf-47ee-b5d0-c76efb069451}, ! Handle
  Corpus Christi Intl Arpt  Ut Ann Clg .4% Condns WB=>MDB, ! Name
  31.9,                                   ! Maximum Dry-Bulb Temperature {C}
  10.1,                                   ! Daily Dry-Bulb Temperature Range {deltaC}
  27.2,                                   ! Humidity Indicating Conditions at Maximum Dry-Bulb {BasedOnField A3}
  101253,                                 ! Barometric Pressure {Pa}
  6.6,                                    ! Wind Speed {m/s}
  140,                                    ! Wind Direction {deg}
  0,                                      ! Sky Clearness
  0,                                      ! Rain Indicator
  0,                                      ! Snow Indicator
  21,                                     ! Day of Month
  8,                                      ! Month
  SummerDesignDay,                        ! Day Type
  0,                                      ! Daylight Saving Time Indicator
  Wetbulb,                                ! Humidity Indicating Type
  ,                                       ! Humidity Indicating Day Schedule Name
  DefaultMultipliers,                     ! Dry-Bulb Temperature Range Modifier Type
  ,                                       ! Dry-Bulb Temperature Range Modifier Schedule Name
  ASHRAETau,                              ! Solar Model Indicator
  ,                                       ! Beam Solar Day Schedule Name
  ,                                       ! Diffuse Solar Day Schedule Name
  0.463,                                  ! ASHRAE Taub {dimensionless}
  2.116;                                  ! ASHRAE Taud {dimensionless}

OS:ComponentData,
  {37b65b18-3145-4812-8a40-f63d04039731}, ! Handle
  Component Data 1,                       ! Name
  {0ba07ed5-3e81-4628-b53c-e6cc45e97624}, ! UUID
  {958f9d26-ada6-4cf8-aab7-0d3625845321}, ! Version UUID
  1366310630,                             ! Creation Timestamp
  1366310630,                             ! Version Timestamp
  {160d97ab-dacf-47ee-b5d0-c76efb069451}; ! Name of Object 1

