
OS:Version,
  {7e14d572-8a5b-4df8-b7a7-e40d80cf0fa4}, ! Handle
  0.9.3;                                  ! Version Identifier

OS:SizingPeriod:DesignDay,
  {2e4a69f0-0010-4fb3-a2bd-2036f15361b4}, ! Handle
  Jack Northrop Fld H Ann Clg 2% Condns DP=>MDB, ! Name
  21.6,                                   ! Maximum Dry-Bulb Temperature {C}
  6.5,                                    ! Daily Dry-Bulb Temperature Range {deltaC}
  17.8,                                   ! Humidity Indicating Conditions at Maximum Dry-Bulb {BasedOnField A3}
  101073,                                 ! Barometric Pressure {Pa}
  3.1,                                    ! Wind Speed {m/s}
  250,                                    ! Wind Direction {deg}
  0,                                      ! Sky Clearness
  0,                                      ! Rain Indicator
  0,                                      ! Snow Indicator
  21,                                     ! Day of Month
  7,                                      ! Month
  SummerDesignDay,                        ! Day Type
  0,                                      ! Daylight Saving Time Indicator
  Dewpoint,                               ! Humidity Indicating Type
  ,                                       ! Humidity Indicating Day Schedule Name
  DefaultMultipliers,                     ! Dry-Bulb Temperature Range Modifier Type
  ,                                       ! Dry-Bulb Temperature Range Modifier Schedule Name
  ASHRAETau,                              ! Solar Model Indicator
  ,                                       ! Beam Solar Day Schedule Name
  ,                                       ! Diffuse Solar Day Schedule Name
  0.462,                                  ! ASHRAE Taub {dimensionless}
  2.021;                                  ! ASHRAE Taud {dimensionless}

OS:ComponentData,
  {037af78a-988c-4f9a-8a31-6784069d9dc8}, ! Handle
  Component Data 1,                       ! Name
  {48d7cdf7-4960-42f1-9db7-28e7e3aa8ca4}, ! UUID
  {4d0143e3-aea5-4880-a80e-51181b872b57}, ! Version UUID
  1366306446,                             ! Creation Timestamp
  1366306446,                             ! Version Timestamp
  {2e4a69f0-0010-4fb3-a2bd-2036f15361b4}; ! Name of Object 1

