
OS:Version,
  {92f2bc70-9e12-44e6-a6cc-9601de91786c}, ! Handle
  0.9.3;                                  ! Version Identifier

OS:SizingPeriod:DesignDay,
  {871b4697-3a8b-41ab-ac73-75b73e39f915}, ! Handle
  Grand Rapids Kent County Int Ann Hum_n 99% Condns DP=>MCDB, ! Name
  -13.5,                                  ! Maximum Dry-Bulb Temperature {C}
  0,                                      ! Daily Dry-Bulb Temperature Range {deltaC}
  -18.1,                                  ! Humidity Indicating Conditions at Maximum Dry-Bulb {BasedOnField A3}
  98451,                                  ! Barometric Pressure {Pa}
  3.7,                                    ! Wind Speed {m/s}
  200,                                    ! Wind Direction {deg}
  0,                                      ! Sky Clearness
  0,                                      ! Rain Indicator
  0,                                      ! Snow Indicator
  21,                                     ! Day of Month
  1,                                      ! Month
  WinterDesignDay,                        ! Day Type
  0,                                      ! Daylight Saving Time Indicator
  Dewpoint,                               ! Humidity Indicating Type
  ,                                       ! Humidity Indicating Day Schedule Name
  DefaultMultipliers,                     ! Dry-Bulb Temperature Range Modifier Type
  ,                                       ! Dry-Bulb Temperature Range Modifier Schedule Name
  ASHRAEClearSky;                         ! Solar Model Indicator

OS:ComponentData,
  {4d034a26-f604-4867-a0ea-8466a0677c70}, ! Handle
  Component Data 1,                       ! Name
  {79bf7e0d-7709-4265-85f4-d9d0449b2850}, ! UUID
  {69df3e3d-39e2-4c66-9f7d-5ba854651a23}, ! Version UUID
  1366308013,                             ! Creation Timestamp
  1366308013,                             ! Version Timestamp
  {871b4697-3a8b-41ab-ac73-75b73e39f915}; ! Name of Object 1

