
OS:Version,
  {833fc025-e379-4981-813a-88301cf8b6ed}, ! Handle
  0.9.3;                                  ! Version Identifier

OS:SizingPeriod:DesignDay,
  {e00d381f-dc64-4a48-8569-d0584eca28de}, ! Handle
  DODGE_CITY Ann Clg 1% Condns WB=>MDB,   ! Name
  31.6,                                   ! Maximum Dry-Bulb Temperature {C}
  13.9,                                   ! Daily Dry-Bulb Temperature Range {deltaC}
  22.9,                                   ! Humidity Indicating Conditions at Maximum Dry-Bulb {BasedOnField A3}
  92221,                                  ! Barometric Pressure {Pa}
  7.4,                                    ! Wind Speed {m/s}
  180,                                    ! Wind Direction {deg}
  0,                                      ! Sky Clearness
  0,                                      ! Rain Indicator
  0,                                      ! Snow Indicator
  21,                                     ! Day of Month
  7,                                      ! Month
  SummerDesignDay,                        ! Day Type
  0,                                      ! Daylight Saving Time Indicator
  Wetbulb,                                ! Humidity Indicating Type
  ,                                       ! Humidity Indicating Day Schedule Name
  DefaultMultipliers,                     ! Dry-Bulb Temperature Range Modifier Type
  ,                                       ! Dry-Bulb Temperature Range Modifier Schedule Name
  ASHRAETau,                              ! Solar Model Indicator
  ,                                       ! Beam Solar Day Schedule Name
  ,                                       ! Diffuse Solar Day Schedule Name
  0.419,                                  ! ASHRAE Taub {dimensionless}
  2.142;                                  ! ASHRAE Taud {dimensionless}

OS:ComponentData,
  {e227b256-3cec-4adc-8139-1146c182aa87}, ! Handle
  Component Data 1,                       ! Name
  {9c7cb496-daa7-4841-bcfd-5a9ad0bcbde3}, ! UUID
  {8237e6bf-cda2-4c9c-b3f1-5040dd69e03f}, ! Version UUID
  1366307505,                             ! Creation Timestamp
  1366307505,                             ! Version Timestamp
  {e00d381f-dc64-4a48-8569-d0584eca28de}; ! Name of Object 1

