
OS:Version,
  {d92c2dee-199c-4f12-925b-1fd71abcb491}, ! Handle
  0.9.3;                                  ! Version Identifier

OS:SizingPeriod:DesignDay,
  {2165e9b4-1377-4889-901f-622c07f99690}, ! Handle
  Aurora Buckley Field Angb Ann Clg 2% Condns DP=>MDB, ! Name
  19.1,                                   ! Maximum Dry-Bulb Temperature {C}
  14.8,                                   ! Daily Dry-Bulb Temperature Range {deltaC}
  13.7,                                   ! Humidity Indicating Conditions at Maximum Dry-Bulb {BasedOnField A3}
  82237,                                  ! Barometric Pressure {Pa}
  3.6,                                    ! Wind Speed {m/s}
  30,                                     ! Wind Direction {deg}
  0,                                      ! Sky Clearness
  0,                                      ! Rain Indicator
  0,                                      ! Snow Indicator
  21,                                     ! Day of Month
  7,                                      ! Month
  SummerDesignDay,                        ! Day Type
  0,                                      ! Daylight Saving Time Indicator
  Dewpoint,                               ! Humidity Indicating Type
  ,                                       ! Humidity Indicating Day Schedule Name
  DefaultMultipliers,                     ! Dry-Bulb Temperature Range Modifier Type
  ,                                       ! Dry-Bulb Temperature Range Modifier Schedule Name
  ASHRAETau,                              ! Solar Model Indicator
  ,                                       ! Beam Solar Day Schedule Name
  ,                                       ! Diffuse Solar Day Schedule Name
  0.423,                                  ! ASHRAE Taub {dimensionless}
  2.02;                                   ! ASHRAE Taud {dimensionless}

OS:ComponentData,
  {34d3a1ee-1a8e-4d82-b560-6c18940e5fb9}, ! Handle
  Component Data 1,                       ! Name
  {cf399967-cdd4-499a-8ba8-8a33e876a82d}, ! UUID
  {3f016575-3e53-4938-b48a-8c7fc7f86b37}, ! Version UUID
  1366306654,                             ! Creation Timestamp
  1366306654,                             ! Version Timestamp
  {2165e9b4-1377-4889-901f-622c07f99690}; ! Name of Object 1

