
OS:Version,
  {98f5b7bb-fe26-4824-a844-8658aedbc3b6}, ! Handle
  0.9.3;                                  ! Version Identifier

OS:SizingPeriod:DesignDay,
  {4847c335-e9de-477e-85bf-e0535799a80c}, ! Handle
  Chula Vista Brown Field Naas Ann Htg Wind 99.6% Condns WS=>MCDB, ! Name
  17.9,                                   ! Maximum Dry-Bulb Temperature {C}
  0,                                      ! Daily Dry-Bulb Temperature Range {deltaC}
  17.9,                                   ! Humidity Indicating Conditions at Maximum Dry-Bulb {BasedOnField A3}
  99429,                                  ! Barometric Pressure {Pa}
  9.2,                                    ! Wind Speed {m/s}
  120,                                    ! Wind Direction {deg}
  0,                                      ! Sky Clearness
  0,                                      ! Rain Indicator
  0,                                      ! Snow Indicator
  21,                                     ! Day of Month
  12,                                     ! Month
  WinterDesignDay,                        ! Day Type
  0,                                      ! Daylight Saving Time Indicator
  Wetbulb,                                ! Humidity Indicating Type
  ,                                       ! Humidity Indicating Day Schedule Name
  DefaultMultipliers,                     ! Dry-Bulb Temperature Range Modifier Type
  ,                                       ! Dry-Bulb Temperature Range Modifier Schedule Name
  ASHRAEClearSky;                         ! Solar Model Indicator

OS:ComponentData,
  {091010f1-2c8b-48c1-a22d-2f121b392b84}, ! Handle
  Component Data 1,                       ! Name
  {f005ef4d-a78c-4ac5-9a3c-197dca441323}, ! UUID
  {871a1f1f-ada2-4ffc-b654-2e7933bc034a}, ! Version UUID
  1366306409,                             ! Creation Timestamp
  1366306409,                             ! Version Timestamp
  {4847c335-e9de-477e-85bf-e0535799a80c}; ! Name of Object 1

