
OS:Version,
  {6f0cf002-ce53-4589-aee9-9fe6d505679c}, ! Handle
  0.9.3;                                  ! Version Identifier

OS:SizingPeriod:DesignDay,
  {d7aacb5e-69b9-4a5c-b931-3f187ceb9865}, ! Handle
  Berlin Municipal Ann Clg 2% Condns DP=>MDB, ! Name
  22,                                     ! Maximum Dry-Bulb Temperature {C}
  13.8,                                   ! Daily Dry-Bulb Temperature Range {deltaC}
  18,                                     ! Humidity Indicating Conditions at Maximum Dry-Bulb {BasedOnField A3}
  97156,                                  ! Barometric Pressure {Pa}
  3,                                      ! Wind Speed {m/s}
  290,                                    ! Wind Direction {deg}
  0,                                      ! Sky Clearness
  0,                                      ! Rain Indicator
  0,                                      ! Snow Indicator
  21,                                     ! Day of Month
  7,                                      ! Month
  SummerDesignDay,                        ! Day Type
  0,                                      ! Daylight Saving Time Indicator
  Dewpoint,                               ! Humidity Indicating Type
  ,                                       ! Humidity Indicating Day Schedule Name
  DefaultMultipliers,                     ! Dry-Bulb Temperature Range Modifier Type
  ,                                       ! Dry-Bulb Temperature Range Modifier Schedule Name
  ASHRAETau,                              ! Solar Model Indicator
  ,                                       ! Beam Solar Day Schedule Name
  ,                                       ! Diffuse Solar Day Schedule Name
  0.442,                                  ! ASHRAE Taub {dimensionless}
  2.043;                                  ! ASHRAE Taud {dimensionless}

OS:ComponentData,
  {765c29a1-dcba-4980-8ddc-da2f9c13c00b}, ! Handle
  Component Data 1,                       ! Name
  {b818274b-08a1-4f3f-b5ae-3a4e4d3bd85f}, ! UUID
  {67d3f2b2-56b4-45b6-89ee-4e587e573856}, ! Version UUID
  1366309215,                             ! Creation Timestamp
  1366309215,                             ! Version Timestamp
  {d7aacb5e-69b9-4a5c-b931-3f187ceb9865}; ! Name of Object 1

