
OS:Version,
  {189cd1c9-73d9-48ee-81cd-553326f0e0be}, ! Handle
  0.9.3;                                  ! Version Identifier

OS:SizingPeriod:DesignDay,
  {c392b60e-6f2b-4cf8-98b9-1f56e52af361}, ! Handle
  Longview Gregg County Ap  Ove Ann Clg 2% Condns DP=>MDB, ! Name
  27.6,                                   ! Maximum Dry-Bulb Temperature {C}
  11.6,                                   ! Daily Dry-Bulb Temperature Range {deltaC}
  23.7,                                   ! Humidity Indicating Conditions at Maximum Dry-Bulb {BasedOnField A3}
  99583,                                  ! Barometric Pressure {Pa}
  3.5,                                    ! Wind Speed {m/s}
  200,                                    ! Wind Direction {deg}
  0,                                      ! Sky Clearness
  0,                                      ! Rain Indicator
  0,                                      ! Snow Indicator
  21,                                     ! Day of Month
  8,                                      ! Month
  SummerDesignDay,                        ! Day Type
  0,                                      ! Daylight Saving Time Indicator
  Dewpoint,                               ! Humidity Indicating Type
  ,                                       ! Humidity Indicating Day Schedule Name
  DefaultMultipliers,                     ! Dry-Bulb Temperature Range Modifier Type
  ,                                       ! Dry-Bulb Temperature Range Modifier Schedule Name
  ASHRAETau,                              ! Solar Model Indicator
  ,                                       ! Beam Solar Day Schedule Name
  ,                                       ! Diffuse Solar Day Schedule Name
  0.491,                                  ! ASHRAE Taub {dimensionless}
  1.993;                                  ! ASHRAE Taud {dimensionless}

OS:ComponentData,
  {65be07f1-8ce8-444e-a85b-16936afc7ce1}, ! Handle
  Component Data 1,                       ! Name
  {0fa8638b-7be3-4f03-a7d8-f200931bf38d}, ! UUID
  {d4fcde56-66cc-45ce-b074-fdfef5b9d0fe}, ! Version UUID
  1366310788,                             ! Creation Timestamp
  1366310788,                             ! Version Timestamp
  {c392b60e-6f2b-4cf8-98b9-1f56e52af361}; ! Name of Object 1

