
OS:Version,
  {7e0f4522-fa0a-4a72-bb72-bedc52b9bcdc}, ! Handle
  0.9.3;                                  ! Version Identifier

OS:SizingPeriod:DesignDay,
  {f190c0b2-4d33-46ee-b4c2-3d3f78dd2ff6}, ! Handle
  ELKINS Ann Clg 2% Condns DP=>MDB,       ! Name
  24.1,                                   ! Maximum Dry-Bulb Temperature {C}
  12,                                     ! Daily Dry-Bulb Temperature Range {deltaC}
  20.2,                                   ! Humidity Indicating Conditions at Maximum Dry-Bulb {BasedOnField A3}
  94390,                                  ! Barometric Pressure {Pa}
  3.2,                                    ! Wind Speed {m/s}
  300,                                    ! Wind Direction {deg}
  0,                                      ! Sky Clearness
  0,                                      ! Rain Indicator
  0,                                      ! Snow Indicator
  21,                                     ! Day of Month
  7,                                      ! Month
  SummerDesignDay,                        ! Day Type
  0,                                      ! Daylight Saving Time Indicator
  Dewpoint,                               ! Humidity Indicating Type
  ,                                       ! Humidity Indicating Day Schedule Name
  DefaultMultipliers,                     ! Dry-Bulb Temperature Range Modifier Type
  ,                                       ! Dry-Bulb Temperature Range Modifier Schedule Name
  ASHRAETau,                              ! Solar Model Indicator
  ,                                       ! Beam Solar Day Schedule Name
  ,                                       ! Diffuse Solar Day Schedule Name
  0.489,                                  ! ASHRAE Taub {dimensionless}
  1.911;                                  ! ASHRAE Taud {dimensionless}

OS:ComponentData,
  {e971abfa-3c4e-4dcd-a492-3fc3cd370269}, ! Handle
  Component Data 1,                       ! Name
  {eb5d644f-607f-4044-9ecf-6fed8631ca95}, ! UUID
  {e6dde922-4d75-4edc-858c-5fc5bfbb27a0}, ! Version UUID
  1366311648,                             ! Creation Timestamp
  1366311648,                             ! Version Timestamp
  {f190c0b2-4d33-46ee-b4c2-3d3f78dd2ff6}; ! Name of Object 1

