
OS:Version,
  {21ba7181-750f-495c-beb2-642b86029440}, ! Handle
  0.9.3;                                  ! Version Identifier

OS:SizingPeriod:DesignDay,
  {aa0bf691-ab92-461c-bc3a-69b457eda46d}, ! Handle
  Iron Mountain Ford Ann Clg 2% Condns DP=>MDB, ! Name
  23.6,                                   ! Maximum Dry-Bulb Temperature {C}
  13.5,                                   ! Daily Dry-Bulb Temperature Range {deltaC}
  19.3,                                   ! Humidity Indicating Conditions at Maximum Dry-Bulb {BasedOnField A3}
  97074,                                  ! Barometric Pressure {Pa}
  4.4,                                    ! Wind Speed {m/s}
  180,                                    ! Wind Direction {deg}
  0,                                      ! Sky Clearness
  0,                                      ! Rain Indicator
  0,                                      ! Snow Indicator
  21,                                     ! Day of Month
  7,                                      ! Month
  SummerDesignDay,                        ! Day Type
  0,                                      ! Daylight Saving Time Indicator
  Dewpoint,                               ! Humidity Indicating Type
  ,                                       ! Humidity Indicating Day Schedule Name
  DefaultMultipliers,                     ! Dry-Bulb Temperature Range Modifier Type
  ,                                       ! Dry-Bulb Temperature Range Modifier Schedule Name
  ASHRAETau,                              ! Solar Model Indicator
  ,                                       ! Beam Solar Day Schedule Name
  ,                                       ! Diffuse Solar Day Schedule Name
  0.411,                                  ! ASHRAE Taub {dimensionless}
  2.18;                                   ! ASHRAE Taud {dimensionless}

OS:ComponentData,
  {7ca0a19a-7ca9-482b-8f12-7d8495b2f3df}, ! Handle
  Component Data 1,                       ! Name
  {e019a7ad-c0ca-4dd7-97bf-80373a8b0cc3}, ! UUID
  {7499eff8-85e9-4a7c-b7b1-f1da3dd9d787}, ! Version UUID
  1366308038,                             ! Creation Timestamp
  1366308038,                             ! Version Timestamp
  {aa0bf691-ab92-461c-bc3a-69b457eda46d}; ! Name of Object 1

