
OS:Version,
  {495a5116-dfab-4728-ba6a-67422c1c2e65}, ! Handle
  0.9.3;                                  ! Version Identifier

OS:SizingPeriod:DesignDay,
  {8ebd1ecd-8ca1-4d8b-9a80-d9af922b6940}, ! Handle
  Long Beach Daugherty Fld Ann Clg 2% Condns WB=>MDB, ! Name
  26.5,                                   ! Maximum Dry-Bulb Temperature {C}
  9.5,                                    ! Daily Dry-Bulb Temperature Range {deltaC}
  21,                                     ! Humidity Indicating Conditions at Maximum Dry-Bulb {BasedOnField A3}
  101229,                                 ! Barometric Pressure {Pa}
  4.1,                                    ! Wind Speed {m/s}
  280,                                    ! Wind Direction {deg}
  0,                                      ! Sky Clearness
  0,                                      ! Rain Indicator
  0,                                      ! Snow Indicator
  21,                                     ! Day of Month
  8,                                      ! Month
  SummerDesignDay,                        ! Day Type
  0,                                      ! Daylight Saving Time Indicator
  Wetbulb,                                ! Humidity Indicating Type
  ,                                       ! Humidity Indicating Day Schedule Name
  DefaultMultipliers,                     ! Dry-Bulb Temperature Range Modifier Type
  ,                                       ! Dry-Bulb Temperature Range Modifier Schedule Name
  ASHRAETau,                              ! Solar Model Indicator
  ,                                       ! Beam Solar Day Schedule Name
  ,                                       ! Diffuse Solar Day Schedule Name
  0.45,                                   ! ASHRAE Taub {dimensionless}
  2.074;                                  ! ASHRAE Taud {dimensionless}

OS:ComponentData,
  {472e8d5c-0bca-4b82-a5a6-867c88dd4b53}, ! Handle
  Component Data 1,                       ! Name
  {4c928ae3-e8f2-437e-9c72-eb07111a8a75}, ! UUID
  {2ce463c8-4673-466a-bf9c-8e710649f674}, ! Version UUID
  1366306472,                             ! Creation Timestamp
  1366306472,                             ! Version Timestamp
  {8ebd1ecd-8ca1-4d8b-9a80-d9af922b6940}; ! Name of Object 1

