
OS:Version,
  {bb12437d-0ddc-4242-8ae9-b6fa63c51443}, ! Handle
  0.9.3;                                  ! Version Identifier

OS:SizingPeriod:DesignDay,
  {3ed8bece-8bb4-46f7-b2e9-4c5b71f8f900}, ! Handle
  Las Vegas Mccarran Intl Ap Ann Hum_n 99% Condns DP=>MCDB, ! Name
  8.1,                                    ! Maximum Dry-Bulb Temperature {C}
  0,                                      ! Daily Dry-Bulb Temperature Range {deltaC}
  -15.4,                                  ! Humidity Indicating Conditions at Maximum Dry-Bulb {BasedOnField A3}
  93779,                                  ! Barometric Pressure {Pa}
  3,                                      ! Wind Speed {m/s}
  240,                                    ! Wind Direction {deg}
  0,                                      ! Sky Clearness
  0,                                      ! Rain Indicator
  0,                                      ! Snow Indicator
  21,                                     ! Day of Month
  12,                                     ! Month
  WinterDesignDay,                        ! Day Type
  0,                                      ! Daylight Saving Time Indicator
  Dewpoint,                               ! Humidity Indicating Type
  ,                                       ! Humidity Indicating Day Schedule Name
  DefaultMultipliers,                     ! Dry-Bulb Temperature Range Modifier Type
  ,                                       ! Dry-Bulb Temperature Range Modifier Schedule Name
  ASHRAEClearSky;                         ! Solar Model Indicator

OS:ComponentData,
  {e257b708-1253-4b0f-a735-8719b795e248}, ! Handle
  Component Data 1,                       ! Name
  {4bf7a67e-88ad-46b1-9301-a9bc1d10f9c2}, ! UUID
  {348adff1-c77a-4614-9bd8-f70aa37f63d9}, ! Version UUID
  1366309501,                             ! Creation Timestamp
  1366309501,                             ! Version Timestamp
  {3ed8bece-8bb4-46f7-b2e9-4c5b71f8f900}; ! Name of Object 1

