
OS:Version,
  {febae21d-3776-43be-8723-e9683e82d2e4}, ! Handle
  0.9.3;                                  ! Version Identifier

OS:SizingPeriod:DesignDay,
  {00ac8d66-8efd-4e8a-93de-7bb8fbe7347c}, ! Handle
  Bremerton National Ann Clg 1% Condns DB=>MWB, ! Name
  27.6,                                   ! Maximum Dry-Bulb Temperature {C}
  12.3,                                   ! Daily Dry-Bulb Temperature Range {deltaC}
  17.5,                                   ! Humidity Indicating Conditions at Maximum Dry-Bulb {BasedOnField A3}
  99690,                                  ! Barometric Pressure {Pa}
  3.3,                                    ! Wind Speed {m/s}
  60,                                     ! Wind Direction {deg}
  0,                                      ! Sky Clearness
  0,                                      ! Rain Indicator
  0,                                      ! Snow Indicator
  21,                                     ! Day of Month
  7,                                      ! Month
  SummerDesignDay,                        ! Day Type
  0,                                      ! Daylight Saving Time Indicator
  Wetbulb,                                ! Humidity Indicating Type
  ,                                       ! Humidity Indicating Day Schedule Name
  DefaultMultipliers,                     ! Dry-Bulb Temperature Range Modifier Type
  ,                                       ! Dry-Bulb Temperature Range Modifier Schedule Name
  ASHRAETau,                              ! Solar Model Indicator
  ,                                       ! Beam Solar Day Schedule Name
  ,                                       ! Diffuse Solar Day Schedule Name
  0.361,                                  ! ASHRAE Taub {dimensionless}
  2.492;                                  ! ASHRAE Taud {dimensionless}

OS:ComponentData,
  {51231595-5366-4a2b-ac09-837fb473a2d4}, ! Handle
  Component Data 1,                       ! Name
  {f3965907-42f8-44c3-bee0-318fbe7ef042}, ! UUID
  {d138d771-23ff-4414-ac14-b892b69831d6}, ! Version UUID
  1366311272,                             ! Creation Timestamp
  1366311272,                             ! Version Timestamp
  {00ac8d66-8efd-4e8a-93de-7bb8fbe7347c}; ! Name of Object 1

