
OS:Version,
  {9d5f1759-7c13-4cba-8bdd-a0d8af171aa7}, ! Handle
  0.9.3;                                  ! Version Identifier

OS:SizingPeriod:DesignDay,
  {56a6abfc-b2d4-408a-a9c1-814be8af0432}, ! Handle
  Barstow/Daggett Ann Clg 1% Condns DP=>MDB, ! Name
  29.8,                                   ! Maximum Dry-Bulb Temperature {C}
  16.6,                                   ! Daily Dry-Bulb Temperature Range {deltaC}
  17.1,                                   ! Humidity Indicating Conditions at Maximum Dry-Bulb {BasedOnField A3}
  94469,                                  ! Barometric Pressure {Pa}
  4.8,                                    ! Wind Speed {m/s}
  290,                                    ! Wind Direction {deg}
  0,                                      ! Sky Clearness
  0,                                      ! Rain Indicator
  0,                                      ! Snow Indicator
  21,                                     ! Day of Month
  7,                                      ! Month
  SummerDesignDay,                        ! Day Type
  0,                                      ! Daylight Saving Time Indicator
  Dewpoint,                               ! Humidity Indicating Type
  ,                                       ! Humidity Indicating Day Schedule Name
  DefaultMultipliers,                     ! Dry-Bulb Temperature Range Modifier Type
  ,                                       ! Dry-Bulb Temperature Range Modifier Schedule Name
  ASHRAETau,                              ! Solar Model Indicator
  ,                                       ! Beam Solar Day Schedule Name
  ,                                       ! Diffuse Solar Day Schedule Name
  0.497,                                  ! ASHRAE Taub {dimensionless}
  1.821;                                  ! ASHRAE Taud {dimensionless}

OS:ComponentData,
  {8bc85ef9-8a88-492c-96bb-6a2e6e44db47}, ! Handle
  Component Data 1,                       ! Name
  {aab3256c-a175-48a8-a74d-10ea20fa98ff}, ! UUID
  {0f6f238f-8055-4b38-9f71-fb6f28561d91}, ! Version UUID
  1366306374,                             ! Creation Timestamp
  1366306374,                             ! Version Timestamp
  {56a6abfc-b2d4-408a-a9c1-814be8af0432}; ! Name of Object 1

