
OS:Version,
  {15beb5bc-c682-406d-98e3-644712c6550c}, ! Handle
  0.9.3;                                  ! Version Identifier

OS:SizingPeriod:DesignDay,
  {11eaa044-3e9b-4a72-bcee-32fabddf1c2e}, ! Handle
  Colorado Springs Ann Clg 1% Condns WB=>MDB, ! Name
  25.2,                                   ! Maximum Dry-Bulb Temperature {C}
  14.5,                                   ! Daily Dry-Bulb Temperature Range {deltaC}
  16.8,                                   ! Humidity Indicating Conditions at Maximum Dry-Bulb {BasedOnField A3}
  80677,                                  ! Barometric Pressure {Pa}
  5.4,                                    ! Wind Speed {m/s}
  170,                                    ! Wind Direction {deg}
  0,                                      ! Sky Clearness
  0,                                      ! Rain Indicator
  0,                                      ! Snow Indicator
  21,                                     ! Day of Month
  7,                                      ! Month
  SummerDesignDay,                        ! Day Type
  0,                                      ! Daylight Saving Time Indicator
  Wetbulb,                                ! Humidity Indicating Type
  ,                                       ! Humidity Indicating Day Schedule Name
  DefaultMultipliers,                     ! Dry-Bulb Temperature Range Modifier Type
  ,                                       ! Dry-Bulb Temperature Range Modifier Schedule Name
  ASHRAETau,                              ! Solar Model Indicator
  ,                                       ! Beam Solar Day Schedule Name
  ,                                       ! Diffuse Solar Day Schedule Name
  0.408,                                  ! ASHRAE Taub {dimensionless}
  2.047;                                  ! ASHRAE Taud {dimensionless}

OS:ComponentData,
  {d6e5df80-8215-4f3a-b015-437c6a869698}, ! Handle
  Component Data 1,                       ! Name
  {d4cb8597-44ad-4d2b-87ce-5b9553d76645}, ! UUID
  {6aff5665-aadd-4735-924a-d16371447a6a}, ! Version UUID
  1366306659,                             ! Creation Timestamp
  1366306659,                             ! Version Timestamp
  {11eaa044-3e9b-4a72-bcee-32fabddf1c2e}; ! Name of Object 1

