
OS:Version,
  {46fa606f-6f60-4ad9-bdbf-b858473a795a}, ! Handle
  0.9.3;                                  ! Version Identifier

OS:SizingPeriod:DesignDay,
  {cb706b88-8f49-46e3-a088-835b1bb83fa4}, ! Handle
  Grand Rapids Kent County Int Ann Clg 1% Condns WB=>MDB, ! Name
  28.1,                                   ! Maximum Dry-Bulb Temperature {C}
  11.1,                                   ! Daily Dry-Bulb Temperature Range {deltaC}
  23.6,                                   ! Humidity Indicating Conditions at Maximum Dry-Bulb {BasedOnField A3}
  98451,                                  ! Barometric Pressure {Pa}
  5.8,                                    ! Wind Speed {m/s}
  240,                                    ! Wind Direction {deg}
  0,                                      ! Sky Clearness
  0,                                      ! Rain Indicator
  0,                                      ! Snow Indicator
  21,                                     ! Day of Month
  7,                                      ! Month
  SummerDesignDay,                        ! Day Type
  0,                                      ! Daylight Saving Time Indicator
  Wetbulb,                                ! Humidity Indicating Type
  ,                                       ! Humidity Indicating Day Schedule Name
  DefaultMultipliers,                     ! Dry-Bulb Temperature Range Modifier Type
  ,                                       ! Dry-Bulb Temperature Range Modifier Schedule Name
  ASHRAETau,                              ! Solar Model Indicator
  ,                                       ! Beam Solar Day Schedule Name
  ,                                       ! Diffuse Solar Day Schedule Name
  0.424,                                  ! ASHRAE Taub {dimensionless}
  2.173;                                  ! ASHRAE Taud {dimensionless}

OS:ComponentData,
  {c828f259-f036-4d5e-92c4-b03326bcaa35}, ! Handle
  Component Data 1,                       ! Name
  {d111b43f-9f00-4d9c-8ca9-8d335eb8282b}, ! UUID
  {26443eac-237d-4068-8ca3-3a35d051b5cc}, ! Version UUID
  1366308014,                             ! Creation Timestamp
  1366308014,                             ! Version Timestamp
  {cb706b88-8f49-46e3-a088-835b1bb83fa4}; ! Name of Object 1

