
OS:Version,
  {47171870-9594-4a43-b797-7ceccc274aa6}, ! Handle
  0.9.3;                                  ! Version Identifier

OS:SizingPeriod:DesignDay,
  {56cc9d8f-0f33-4ba2-8a94-9bd8679d27b1}, ! Handle
  Johnstown Cambria County Ap Ann Clg 1% Condns DB=>MWB, ! Name
  27.9,                                   ! Maximum Dry-Bulb Temperature {C}
  9.1,                                    ! Daily Dry-Bulb Temperature Range {deltaC}
  20.3,                                   ! Humidity Indicating Conditions at Maximum Dry-Bulb {BasedOnField A3}
  93250,                                  ! Barometric Pressure {Pa}
  4.3,                                    ! Wind Speed {m/s}
  290,                                    ! Wind Direction {deg}
  0,                                      ! Sky Clearness
  0,                                      ! Rain Indicator
  0,                                      ! Snow Indicator
  21,                                     ! Day of Month
  7,                                      ! Month
  SummerDesignDay,                        ! Day Type
  0,                                      ! Daylight Saving Time Indicator
  Wetbulb,                                ! Humidity Indicating Type
  ,                                       ! Humidity Indicating Day Schedule Name
  DefaultMultipliers,                     ! Dry-Bulb Temperature Range Modifier Type
  ,                                       ! Dry-Bulb Temperature Range Modifier Schedule Name
  ASHRAETau,                              ! Solar Model Indicator
  ,                                       ! Beam Solar Day Schedule Name
  ,                                       ! Diffuse Solar Day Schedule Name
  0.46,                                   ! ASHRAE Taub {dimensionless}
  1.96;                                   ! ASHRAE Taud {dimensionless}

OS:ComponentData,
  {5731ac11-da2c-41de-9a9e-24b1c3d80c29}, ! Handle
  Component Data 1,                       ! Name
  {5463ba7b-6bfb-49c8-8100-220132872f86}, ! UUID
  {e034d2fa-304b-4c7a-a146-b20ff0179ddc}, ! Version UUID
  1366310201,                             ! Creation Timestamp
  1366310201,                             ! Version Timestamp
  {56cc9d8f-0f33-4ba2-8a94-9bd8679d27b1}; ! Name of Object 1

