
OS:Version,
  {c9ab8757-9e2c-478d-9eab-277123ca393e}, ! Handle
  0.9.3;                                  ! Version Identifier

OS:SizingPeriod:DesignDay,
  {84a1d81f-1da6-4006-935c-52e24e1c7132}, ! Handle
  Baton Rouge Ryan Arpt Ann Clg 1% Condns WB=>MDB, ! Name
  31.1,                                   ! Maximum Dry-Bulb Temperature {C}
  9.4,                                    ! Daily Dry-Bulb Temperature Range {deltaC}
  26.5,                                   ! Humidity Indicating Conditions at Maximum Dry-Bulb {BasedOnField A3}
  101085,                                 ! Barometric Pressure {Pa}
  3.3,                                    ! Wind Speed {m/s}
  260,                                    ! Wind Direction {deg}
  0,                                      ! Sky Clearness
  0,                                      ! Rain Indicator
  0,                                      ! Snow Indicator
  21,                                     ! Day of Month
  7,                                      ! Month
  SummerDesignDay,                        ! Day Type
  0,                                      ! Daylight Saving Time Indicator
  Wetbulb,                                ! Humidity Indicating Type
  ,                                       ! Humidity Indicating Day Schedule Name
  DefaultMultipliers,                     ! Dry-Bulb Temperature Range Modifier Type
  ,                                       ! Dry-Bulb Temperature Range Modifier Schedule Name
  ASHRAETau,                              ! Solar Model Indicator
  ,                                       ! Beam Solar Day Schedule Name
  ,                                       ! Diffuse Solar Day Schedule Name
  0.542,                                  ! ASHRAE Taub {dimensionless}
  1.845;                                  ! ASHRAE Taud {dimensionless}

OS:ComponentData,
  {da104926-c65c-448a-a011-ea998c06d5a9}, ! Handle
  Component Data 1,                       ! Name
  {5747688a-50ac-4136-88cd-85fc9d7125e9}, ! UUID
  {c7a6ebb0-1584-4f11-9c88-a3521c368808}, ! Version UUID
  1366307707,                             ! Creation Timestamp
  1366307707,                             ! Version Timestamp
  {84a1d81f-1da6-4006-935c-52e24e1c7132}; ! Name of Object 1

