
OS:Version,
  {a964d5cd-62b9-47ce-b8de-663452fa11f5}, ! Handle
  0.9.3;                                  ! Version Identifier

OS:SizingPeriod:DesignDay,
  {2f43866d-e387-4eee-8aa6-45738965afd5}, ! Handle
  Lovelock Derby Field Ann Clg 1% Condns WB=>MDB, ! Name
  31.5,                                   ! Maximum Dry-Bulb Temperature {C}
  20.2,                                   ! Daily Dry-Bulb Temperature Range {deltaC}
  18,                                     ! Humidity Indicating Conditions at Maximum Dry-Bulb {BasedOnField A3}
  87833,                                  ! Barometric Pressure {Pa}
  4.1,                                    ! Wind Speed {m/s}
  180,                                    ! Wind Direction {deg}
  0,                                      ! Sky Clearness
  0,                                      ! Rain Indicator
  0,                                      ! Snow Indicator
  21,                                     ! Day of Month
  7,                                      ! Month
  SummerDesignDay,                        ! Day Type
  0,                                      ! Daylight Saving Time Indicator
  Wetbulb,                                ! Humidity Indicating Type
  ,                                       ! Humidity Indicating Day Schedule Name
  DefaultMultipliers,                     ! Dry-Bulb Temperature Range Modifier Type
  ,                                       ! Dry-Bulb Temperature Range Modifier Schedule Name
  ASHRAETau,                              ! Solar Model Indicator
  ,                                       ! Beam Solar Day Schedule Name
  ,                                       ! Diffuse Solar Day Schedule Name
  0.427,                                  ! ASHRAE Taub {dimensionless}
  1.948;                                  ! ASHRAE Taud {dimensionless}

OS:ComponentData,
  {358b6e38-dc29-43f5-a304-faa2159232ab}, ! Handle
  Component Data 1,                       ! Name
  {c9ff9473-2e5e-46de-87f3-9cbbacde8736}, ! UUID
  {1a7b67fe-8b70-41a0-9584-337b8fd482c6}, ! Version UUID
  1366309517,                             ! Creation Timestamp
  1366309517,                             ! Version Timestamp
  {2f43866d-e387-4eee-8aa6-45738965afd5}; ! Name of Object 1

