
OS:Version,
  {c0c09415-6969-4d47-9b3d-8c66363af151}, ! Handle
  0.9.3;                                  ! Version Identifier

OS:SizingPeriod:DesignDay,
  {dae7e028-0212-44cc-bb7e-6a8867d8d517}, ! Handle
  GRAND_ISLAND Ann Clg .4% Condns Enth=>MDB, ! Name
  31.7,                                   ! Maximum Dry-Bulb Temperature {C}
  12.2,                                   ! Daily Dry-Bulb Temperature Range {deltaC}
  80000,                                  ! Humidity Indicating Conditions at Maximum Dry-Bulb {BasedOnField A3}
  94708,                                  ! Barometric Pressure {Pa}
  6.5,                                    ! Wind Speed {m/s}
  180,                                    ! Wind Direction {deg}
  0,                                      ! Sky Clearness
  0,                                      ! Rain Indicator
  0,                                      ! Snow Indicator
  21,                                     ! Day of Month
  7,                                      ! Month
  SummerDesignDay,                        ! Day Type
  0,                                      ! Daylight Saving Time Indicator
  Enthalpy,                               ! Humidity Indicating Type
  ,                                       ! Humidity Indicating Day Schedule Name
  DefaultMultipliers,                     ! Dry-Bulb Temperature Range Modifier Type
  ,                                       ! Dry-Bulb Temperature Range Modifier Schedule Name
  ASHRAETau,                              ! Solar Model Indicator
  ,                                       ! Beam Solar Day Schedule Name
  ,                                       ! Diffuse Solar Day Schedule Name
  0.405,                                  ! ASHRAE Taub {dimensionless}
  2.23;                                   ! ASHRAE Taud {dimensionless}

OS:ComponentData,
  {1d4f71c5-29a9-43a3-b37c-8dbfc45bd511}, ! Handle
  Component Data 1,                       ! Name
  {e1cb0aeb-1c97-4f26-b664-86c3a83326f0}, ! UUID
  {bfa4f750-b216-4b51-95ab-5e0c447002a6}, ! Version UUID
  1366309123,                             ! Creation Timestamp
  1366309123,                             ! Version Timestamp
  {dae7e028-0212-44cc-bb7e-6a8867d8d517}; ! Name of Object 1

