
OS:Version,
  {c450709f-5ac8-4744-967f-8a3011bbf30a}, ! Handle
  0.9.3;                                  ! Version Identifier

OS:SizingPeriod:DesignDay,
  {a2b70ad3-cb4f-44c0-8a6c-e04055645ced}, ! Handle
  Cedar City Municipal Ap Ann Clg 1% Condns DP=>MDB, ! Name
  20,                                     ! Maximum Dry-Bulb Temperature {C}
  16.7,                                   ! Daily Dry-Bulb Temperature Range {deltaC}
  13.7,                                   ! Humidity Indicating Conditions at Maximum Dry-Bulb {BasedOnField A3}
  82471,                                  ! Barometric Pressure {Pa}
  5,                                      ! Wind Speed {m/s}
  210,                                    ! Wind Direction {deg}
  0,                                      ! Sky Clearness
  0,                                      ! Rain Indicator
  0,                                      ! Snow Indicator
  21,                                     ! Day of Month
  7,                                      ! Month
  SummerDesignDay,                        ! Day Type
  0,                                      ! Daylight Saving Time Indicator
  Dewpoint,                               ! Humidity Indicating Type
  ,                                       ! Humidity Indicating Day Schedule Name
  DefaultMultipliers,                     ! Dry-Bulb Temperature Range Modifier Type
  ,                                       ! Dry-Bulb Temperature Range Modifier Schedule Name
  ASHRAETau,                              ! Solar Model Indicator
  ,                                       ! Beam Solar Day Schedule Name
  ,                                       ! Diffuse Solar Day Schedule Name
  0.415,                                  ! ASHRAE Taub {dimensionless}
  2.019;                                  ! ASHRAE Taud {dimensionless}

OS:ComponentData,
  {f541831c-aee2-4949-9b62-86db86d0be6a}, ! Handle
  Component Data 1,                       ! Name
  {829191e7-dafb-4881-badd-c4fa24413ff1}, ! UUID
  {b851d7e8-816c-4a0d-8ba5-9b52b3339a6d}, ! Version UUID
  1366310960,                             ! Creation Timestamp
  1366310960,                             ! Version Timestamp
  {a2b70ad3-cb4f-44c0-8a6c-e04055645ced}; ! Name of Object 1

