
OS:Version,
  {7452464b-93ad-4bde-8cd5-ecf5f2ffd5bb}, ! Handle
  0.9.3;                                  ! Version Identifier

OS:SizingPeriod:DesignDay,
  {56231a23-c42f-4f84-9bec-35bc93f4fc67}, ! Handle
  Amarillo Ann Hum_n 99.6% Condns DP=>MCDB, ! Name
  -8.2,                                   ! Maximum Dry-Bulb Temperature {C}
  0,                                      ! Daily Dry-Bulb Temperature Range {deltaC}
  -18.9,                                  ! Humidity Indicating Conditions at Maximum Dry-Bulb {BasedOnField A3}
  88801,                                  ! Barometric Pressure {Pa}
  5.1,                                    ! Wind Speed {m/s}
  20,                                     ! Wind Direction {deg}
  0,                                      ! Sky Clearness
  0,                                      ! Rain Indicator
  0,                                      ! Snow Indicator
  21,                                     ! Day of Month
  12,                                     ! Month
  WinterDesignDay,                        ! Day Type
  0,                                      ! Daylight Saving Time Indicator
  Dewpoint,                               ! Humidity Indicating Type
  ,                                       ! Humidity Indicating Day Schedule Name
  DefaultMultipliers,                     ! Dry-Bulb Temperature Range Modifier Type
  ,                                       ! Dry-Bulb Temperature Range Modifier Schedule Name
  ASHRAEClearSky;                         ! Solar Model Indicator

OS:ComponentData,
  {6c6e7384-33cf-4de1-80c6-b1582e79a280}, ! Handle
  Component Data 1,                       ! Name
  {e637260d-2195-445f-9092-2daa64a5c1ab}, ! UUID
  {a6910bff-d738-4ab2-920d-dc5d85e48978}, ! Version UUID
  1366310570,                             ! Creation Timestamp
  1366310570,                             ! Version Timestamp
  {56231a23-c42f-4f84-9bec-35bc93f4fc67}; ! Name of Object 1

