
OS:Version,
  {78992f92-53fe-41cc-b73c-7c8d99472f57}, ! Handle
  0.9.3;                                  ! Version Identifier

OS:SizingPeriod:DesignDay,
  {b526a02c-ed9a-4865-a884-f5243dea18a6}, ! Handle
  Corpus Christi Nas Ann Clg .4% Condns DB=>MWB, ! Name
  34,                                     ! Maximum Dry-Bulb Temperature {C}
  6.7,                                    ! Daily Dry-Bulb Temperature Range {deltaC}
  26.2,                                   ! Humidity Indicating Conditions at Maximum Dry-Bulb {BasedOnField A3}
  101253,                                 ! Barometric Pressure {Pa}
  6.1,                                    ! Wind Speed {m/s}
  150,                                    ! Wind Direction {deg}
  0,                                      ! Sky Clearness
  0,                                      ! Rain Indicator
  0,                                      ! Snow Indicator
  21,                                     ! Day of Month
  8,                                      ! Month
  SummerDesignDay,                        ! Day Type
  0,                                      ! Daylight Saving Time Indicator
  Wetbulb,                                ! Humidity Indicating Type
  ,                                       ! Humidity Indicating Day Schedule Name
  DefaultMultipliers,                     ! Dry-Bulb Temperature Range Modifier Type
  ,                                       ! Dry-Bulb Temperature Range Modifier Schedule Name
  ASHRAETau,                              ! Solar Model Indicator
  ,                                       ! Beam Solar Day Schedule Name
  ,                                       ! Diffuse Solar Day Schedule Name
  0.465,                                  ! ASHRAE Taub {dimensionless}
  2.117;                                  ! ASHRAE Taud {dimensionless}

OS:ComponentData,
  {3315d855-c4e7-477f-aacd-9499fac68d0d}, ! Handle
  Component Data 1,                       ! Name
  {0637d809-70c5-42f1-8aba-1053e89a2fc5}, ! UUID
  {8f824b18-7873-4f23-aea8-8c5b61bfd07b}, ! Version UUID
  1366310634,                             ! Creation Timestamp
  1366310634,                             ! Version Timestamp
  {b526a02c-ed9a-4865-a884-f5243dea18a6}; ! Name of Object 1

