
OS:Version,
  {509b8cc2-9967-4f25-abc3-437857c29077}, ! Handle
  0.9.3;                                  ! Version Identifier

OS:SizingPeriod:DesignDay,
  {52539e4c-1d5a-4f13-8ea8-69ea23206ed4}, ! Handle
  Hattiesburg Laurel Ann Clg 1% Condns DB=>MWB, ! Name
  34,                                     ! Maximum Dry-Bulb Temperature {C}
  10.9,                                   ! Daily Dry-Bulb Temperature Range {deltaC}
  23.9,                                   ! Humidity Indicating Conditions at Maximum Dry-Bulb {BasedOnField A3}
  100213,                                 ! Barometric Pressure {Pa}
  2.1,                                    ! Wind Speed {m/s}
  330,                                    ! Wind Direction {deg}
  0,                                      ! Sky Clearness
  0,                                      ! Rain Indicator
  0,                                      ! Snow Indicator
  21,                                     ! Day of Month
  7,                                      ! Month
  SummerDesignDay,                        ! Day Type
  0,                                      ! Daylight Saving Time Indicator
  Wetbulb,                                ! Humidity Indicating Type
  ,                                       ! Humidity Indicating Day Schedule Name
  DefaultMultipliers,                     ! Dry-Bulb Temperature Range Modifier Type
  ,                                       ! Dry-Bulb Temperature Range Modifier Schedule Name
  ASHRAETau,                              ! Solar Model Indicator
  ,                                       ! Beam Solar Day Schedule Name
  ,                                       ! Diffuse Solar Day Schedule Name
  0.55,                                   ! ASHRAE Taub {dimensionless}
  1.826;                                  ! ASHRAE Taud {dimensionless}

OS:ComponentData,
  {f387ce9a-bf60-476e-807e-04a7969e074f}, ! Handle
  Component Data 1,                       ! Name
  {02086b8c-c04f-4229-95d1-64ce6d82ec05}, ! UUID
  {00f7535e-fc8d-44b5-b19c-38ba5b9c95c3}, ! Version UUID
  1366308633,                             ! Creation Timestamp
  1366308633,                             ! Version Timestamp
  {52539e4c-1d5a-4f13-8ea8-69ea23206ed4}; ! Name of Object 1

