
OS:Version,
  {8f8e5ed3-ec03-4bef-be3e-26209c5ca5f2}, ! Handle
  0.9.3;                                  ! Version Identifier

OS:SizingPeriod:DesignDay,
  {d08bb5c1-095e-4fd3-a603-1d03a26dda04}, ! Handle
  Burley Municipal Arpt Ann Clg 2% Condns DP=>MDB, ! Name
  22.3,                                   ! Maximum Dry-Bulb Temperature {C}
  16.9,                                   ! Daily Dry-Bulb Temperature Range {deltaC}
  13.3,                                   ! Humidity Indicating Conditions at Maximum Dry-Bulb {BasedOnField A3}
  87002,                                  ! Barometric Pressure {Pa}
  3,                                      ! Wind Speed {m/s}
  270,                                    ! Wind Direction {deg}
  0,                                      ! Sky Clearness
  0,                                      ! Rain Indicator
  0,                                      ! Snow Indicator
  21,                                     ! Day of Month
  7,                                      ! Month
  SummerDesignDay,                        ! Day Type
  0,                                      ! Daylight Saving Time Indicator
  Dewpoint,                               ! Humidity Indicating Type
  ,                                       ! Humidity Indicating Day Schedule Name
  DefaultMultipliers,                     ! Dry-Bulb Temperature Range Modifier Type
  ,                                       ! Dry-Bulb Temperature Range Modifier Schedule Name
  ASHRAETau,                              ! Solar Model Indicator
  ,                                       ! Beam Solar Day Schedule Name
  ,                                       ! Diffuse Solar Day Schedule Name
  0.429,                                  ! ASHRAE Taub {dimensionless}
  1.956;                                  ! ASHRAE Taud {dimensionless}

OS:ComponentData,
  {d14cd6d0-76f0-4fe6-b0bc-e8a309cbd2e4}, ! Handle
  Component Data 1,                       ! Name
  {78df45f0-f810-4729-aac6-eb9d02002add}, ! UUID
  {b232b57e-00bc-45dd-a414-22cf1f18153a}, ! Version UUID
  1366307274,                             ! Creation Timestamp
  1366307274,                             ! Version Timestamp
  {d08bb5c1-095e-4fd3-a603-1d03a26dda04}; ! Name of Object 1

