
OS:Version,
  {5765747a-a9a8-4688-94d8-b6575ef73190}, ! Handle
  0.9.3;                                  ! Version Identifier

OS:SizingPeriod:DesignDay,
  {222823dc-26cb-4c25-b1b7-03749884cc71}, ! Handle
  Alice Intl Ap Ann Clg .4% Condns Enth=>MDB, ! Name
  32.6,                                   ! Maximum Dry-Bulb Temperature {C}
  12,                                     ! Daily Dry-Bulb Temperature Range {deltaC}
  85100,                                  ! Humidity Indicating Conditions at Maximum Dry-Bulb {BasedOnField A3}
  100690,                                 ! Barometric Pressure {Pa}
  5.5,                                    ! Wind Speed {m/s}
  140,                                    ! Wind Direction {deg}
  0,                                      ! Sky Clearness
  0,                                      ! Rain Indicator
  0,                                      ! Snow Indicator
  21,                                     ! Day of Month
  7,                                      ! Month
  SummerDesignDay,                        ! Day Type
  0,                                      ! Daylight Saving Time Indicator
  Enthalpy,                               ! Humidity Indicating Type
  ,                                       ! Humidity Indicating Day Schedule Name
  DefaultMultipliers,                     ! Dry-Bulb Temperature Range Modifier Type
  ,                                       ! Dry-Bulb Temperature Range Modifier Schedule Name
  ASHRAETau,                              ! Solar Model Indicator
  ,                                       ! Beam Solar Day Schedule Name
  ,                                       ! Diffuse Solar Day Schedule Name
  0.449,                                  ! ASHRAE Taub {dimensionless}
  2.159;                                  ! ASHRAE Taud {dimensionless}

OS:ComponentData,
  {dafdc80a-493f-44e6-aab2-da9fec2a8fd9}, ! Handle
  Component Data 1,                       ! Name
  {68414737-2ca8-42db-99c4-2376a567392d}, ! UUID
  {c524accb-99b0-4c53-8953-cfb34c934e85}, ! Version UUID
  1366310563,                             ! Creation Timestamp
  1366310563,                             ! Version Timestamp
  {222823dc-26cb-4c25-b1b7-03749884cc71}; ! Name of Object 1

