
OS:Version,
  {61d45437-d405-4882-b531-916dc65dcd9e}, ! Handle
  0.9.3;                                  ! Version Identifier

OS:SizingPeriod:DesignDay,
  {0727fafd-3320-4659-bd2e-8bb200e05c52}, ! Handle
  HOUGHTON Ann Clg 1% Condns DB=>MWB,     ! Name
  27.4,                                   ! Maximum Dry-Bulb Temperature {C}
  10.5,                                   ! Daily Dry-Bulb Temperature Range {deltaC}
  20.1,                                   ! Humidity Indicating Conditions at Maximum Dry-Bulb {BasedOnField A3}
  97435,                                  ! Barometric Pressure {Pa}
  4.7,                                    ! Wind Speed {m/s}
  270,                                    ! Wind Direction {deg}
  0,                                      ! Sky Clearness
  0,                                      ! Rain Indicator
  0,                                      ! Snow Indicator
  21,                                     ! Day of Month
  7,                                      ! Month
  SummerDesignDay,                        ! Day Type
  0,                                      ! Daylight Saving Time Indicator
  Wetbulb,                                ! Humidity Indicating Type
  ,                                       ! Humidity Indicating Day Schedule Name
  DefaultMultipliers,                     ! Dry-Bulb Temperature Range Modifier Type
  ,                                       ! Dry-Bulb Temperature Range Modifier Schedule Name
  ASHRAETau,                              ! Solar Model Indicator
  ,                                       ! Beam Solar Day Schedule Name
  ,                                       ! Diffuse Solar Day Schedule Name
  0.413,                                  ! ASHRAE Taub {dimensionless}
  2.179;                                  ! ASHRAE Taud {dimensionless}

OS:ComponentData,
  {97170fbe-2ce5-4ef6-8e89-746d93e68326}, ! Handle
  Component Data 1,                       ! Name
  {c080e902-fdaa-48c4-a615-ee9ee6de8d8a}, ! UUID
  {4c62f386-5879-47a8-988b-e466fef552f3}, ! Version UUID
  1366308029,                             ! Creation Timestamp
  1366308029,                             ! Version Timestamp
  {0727fafd-3320-4659-bd2e-8bb200e05c52}; ! Name of Object 1

