
OS:Version,
  {2d34beca-b1bb-47ff-b677-f0823051378a}, ! Handle
  0.9.3;                                  ! Version Identifier

OS:SizingPeriod:DesignDay,
  {91ce2401-f67e-4ad2-9c69-727978a6fd90}, ! Handle
  Fort Wayne Ann Clg 2% Condns DP=>MDB,   ! Name
  26.2,                                   ! Maximum Dry-Bulb Temperature {C}
  11.1,                                   ! Daily Dry-Bulb Temperature Range {deltaC}
  22.1,                                   ! Humidity Indicating Conditions at Maximum Dry-Bulb {BasedOnField A3}
  98334,                                  ! Barometric Pressure {Pa}
  5,                                      ! Wind Speed {m/s}
  240,                                    ! Wind Direction {deg}
  0,                                      ! Sky Clearness
  0,                                      ! Rain Indicator
  0,                                      ! Snow Indicator
  21,                                     ! Day of Month
  7,                                      ! Month
  SummerDesignDay,                        ! Day Type
  0,                                      ! Daylight Saving Time Indicator
  Dewpoint,                               ! Humidity Indicating Type
  ,                                       ! Humidity Indicating Day Schedule Name
  DefaultMultipliers,                     ! Dry-Bulb Temperature Range Modifier Type
  ,                                       ! Dry-Bulb Temperature Range Modifier Schedule Name
  ASHRAETau,                              ! Solar Model Indicator
  ,                                       ! Beam Solar Day Schedule Name
  ,                                       ! Diffuse Solar Day Schedule Name
  0.451,                                  ! ASHRAE Taub {dimensionless}
  2.059;                                  ! ASHRAE Taud {dimensionless}

