
OS:Version,
  {1d5491c7-5c4f-4e35-a793-16edea5c6fad}, ! Handle
  0.9.3;                                  ! Version Identifier

OS:SizingPeriod:DesignDay,
  {f47a775e-452a-4dda-bfd6-49d93a899846}, ! Handle
  Anniston Metropolitan Ap Ann Htg Wind 99% Condns WS=>MCDB, ! Name
  9,                                      ! Maximum Dry-Bulb Temperature {C}
  0,                                      ! Daily Dry-Bulb Temperature Range {deltaC}
  9,                                      ! Humidity Indicating Conditions at Maximum Dry-Bulb {BasedOnField A3}
  99110,                                  ! Barometric Pressure {Pa}
  8,                                      ! Wind Speed {m/s}
  250,                                    ! Wind Direction {deg}
  0,                                      ! Sky Clearness
  0,                                      ! Rain Indicator
  0,                                      ! Snow Indicator
  21,                                     ! Day of Month
  1,                                      ! Month
  WinterDesignDay,                        ! Day Type
  0,                                      ! Daylight Saving Time Indicator
  Wetbulb,                                ! Humidity Indicating Type
  ,                                       ! Humidity Indicating Day Schedule Name
  DefaultMultipliers,                     ! Dry-Bulb Temperature Range Modifier Type
  ,                                       ! Dry-Bulb Temperature Range Modifier Schedule Name
  ASHRAEClearSky;                         ! Solar Model Indicator

OS:ComponentData,
  {8ea7ba73-0c01-4d5e-b070-0149c65e1153}, ! Handle
  Component Data 1,                       ! Name
  {46d7b124-092a-48c9-8527-ec9384b35018}, ! UUID
  {3bf22bd0-2715-47c9-8e0e-ed168ef4061f}, ! Version UUID
  1366305634,                             ! Creation Timestamp
  1366305634,                             ! Version Timestamp
  {f47a775e-452a-4dda-bfd6-49d93a899846}; ! Name of Object 1

