
OS:Version,
  {667a620f-a4f8-46fc-867d-e7cff3e0d52c}, ! Handle
  0.9.3;                                  ! Version Identifier

OS:SizingPeriod:DesignDay,
  {a2510fb9-54ee-4105-81d7-c2fdcbc9990f}, ! Handle
  Augusta Airport Ann Hum_n 99% Condns DP=>MCDB, ! Name
  -16.1,                                  ! Maximum Dry-Bulb Temperature {C}
  0,                                      ! Daily Dry-Bulb Temperature Range {deltaC}
  -25.3,                                  ! Humidity Indicating Conditions at Maximum Dry-Bulb {BasedOnField A3}
  100046,                                 ! Barometric Pressure {Pa}
  4.3,                                    ! Wind Speed {m/s}
  290,                                    ! Wind Direction {deg}
  0,                                      ! Sky Clearness
  0,                                      ! Rain Indicator
  0,                                      ! Snow Indicator
  21,                                     ! Day of Month
  1,                                      ! Month
  WinterDesignDay,                        ! Day Type
  0,                                      ! Daylight Saving Time Indicator
  Dewpoint,                               ! Humidity Indicating Type
  ,                                       ! Humidity Indicating Day Schedule Name
  DefaultMultipliers,                     ! Dry-Bulb Temperature Range Modifier Type
  ,                                       ! Dry-Bulb Temperature Range Modifier Schedule Name
  ASHRAEClearSky;                         ! Solar Model Indicator

OS:ComponentData,
  {7c812a99-a571-4bbb-aebf-c123639e9328}, ! Handle
  Component Data 1,                       ! Name
  {e6cac449-ddfd-4b6c-a78b-50dba0882a57}, ! UUID
  {b5c843ea-b2df-48c4-a76b-45925bdfb43b}, ! Version UUID
  1366307868,                             ! Creation Timestamp
  1366307868,                             ! Version Timestamp
  {a2510fb9-54ee-4105-81d7-c2fdcbc9990f}; ! Name of Object 1

