
OS:Version,
  {86e73a94-8fae-4bc9-b5ec-96115f8a795e}, ! Handle
  0.9.3;                                  ! Version Identifier

OS:SizingPeriod:DesignDay,
  {1bba77b1-f54b-4366-8ca9-0fc85c32f830}, ! Handle
  Grissom Arb Ann Clg 1% Condns DP=>MDB,  ! Name
  28.4,                                   ! Maximum Dry-Bulb Temperature {C}
  10.2,                                   ! Daily Dry-Bulb Temperature Range {deltaC}
  23.6,                                   ! Humidity Indicating Conditions at Maximum Dry-Bulb {BasedOnField A3}
  98322,                                  ! Barometric Pressure {Pa}
  3.9,                                    ! Wind Speed {m/s}
  220,                                    ! Wind Direction {deg}
  0,                                      ! Sky Clearness
  0,                                      ! Rain Indicator
  0,                                      ! Snow Indicator
  21,                                     ! Day of Month
  7,                                      ! Month
  SummerDesignDay,                        ! Day Type
  0,                                      ! Daylight Saving Time Indicator
  Dewpoint,                               ! Humidity Indicating Type
  ,                                       ! Humidity Indicating Day Schedule Name
  DefaultMultipliers,                     ! Dry-Bulb Temperature Range Modifier Type
  ,                                       ! Dry-Bulb Temperature Range Modifier Schedule Name
  ASHRAETau,                              ! Solar Model Indicator
  ,                                       ! Beam Solar Day Schedule Name
  ,                                       ! Diffuse Solar Day Schedule Name
  0.457,                                  ! ASHRAE Taub {dimensionless}
  2.034;                                  ! ASHRAE Taud {dimensionless}

OS:ComponentData,
  {2339a037-6ac9-44c2-8086-43f75864b608}, ! Handle
  Component Data 1,                       ! Name
  {d9001199-eeb9-4f4d-ae11-0989c0520849}, ! UUID
  {6ecf9c30-0595-4553-ad1a-8432df520e61}, ! Version UUID
  1366307451,                             ! Creation Timestamp
  1366307451,                             ! Version Timestamp
  {1bba77b1-f54b-4366-8ca9-0fc85c32f830}; ! Name of Object 1

