
OS:Version,
  {c6a56545-0099-4e81-9c7a-c2966743ab7f}, ! Handle
  0.9.3;                                  ! Version Identifier

OS:SizingPeriod:DesignDay,
  {c87ccd2e-de09-4a3a-964f-e12a4c9baab6}, ! Handle
  Burlington Ann Htg Wind 99.6% Condns WS=>MCDB, ! Name
  -0.1,                                   ! Maximum Dry-Bulb Temperature {C}
  0,                                      ! Daily Dry-Bulb Temperature Range {deltaC}
  -0.1,                                   ! Humidity Indicating Conditions at Maximum Dry-Bulb {BasedOnField A3}
  100082,                                 ! Barometric Pressure {Pa}
  12.4,                                   ! Wind Speed {m/s}
  60,                                     ! Wind Direction {deg}
  0,                                      ! Sky Clearness
  0,                                      ! Rain Indicator
  0,                                      ! Snow Indicator
  21,                                     ! Day of Month
  1,                                      ! Month
  WinterDesignDay,                        ! Day Type
  0,                                      ! Daylight Saving Time Indicator
  Wetbulb,                                ! Humidity Indicating Type
  ,                                       ! Humidity Indicating Day Schedule Name
  DefaultMultipliers,                     ! Dry-Bulb Temperature Range Modifier Type
  ,                                       ! Dry-Bulb Temperature Range Modifier Schedule Name
  ASHRAEClearSky;                         ! Solar Model Indicator

OS:ComponentData,
  {c31a140a-114b-43aa-9f49-5e349037d81e}, ! Handle
  Component Data 1,                       ! Name
  {18078ca9-cf98-4a8f-892d-03c330e5ebb2}, ! UUID
  {5a06dc56-5021-4bc3-b46e-ba788f49f25b}, ! Version UUID
  1366311239,                             ! Creation Timestamp
  1366311239,                             ! Version Timestamp
  {c87ccd2e-de09-4a3a-964f-e12a4c9baab6}; ! Name of Object 1

