
OS:Version,
  {cdef679d-3e3e-4748-bc9a-72966512bed0}, ! Handle
  0.9.3;                                  ! Version Identifier

OS:SizingPeriod:DesignDay,
  {451c7c8e-87e3-4477-a5fa-4b4cac199cab}, ! Handle
  Alliance Municipal Ann Hum_n 99.6% Condns DP=>MCDB, ! Name
  -21.5,                                  ! Maximum Dry-Bulb Temperature {C}
  0,                                      ! Daily Dry-Bulb Temperature Range {deltaC}
  -25.1,                                  ! Humidity Indicating Conditions at Maximum Dry-Bulb {BasedOnField A3}
  87737,                                  ! Barometric Pressure {Pa}
  2.8,                                    ! Wind Speed {m/s}
  10,                                     ! Wind Direction {deg}
  0,                                      ! Sky Clearness
  0,                                      ! Rain Indicator
  0,                                      ! Snow Indicator
  21,                                     ! Day of Month
  12,                                     ! Month
  WinterDesignDay,                        ! Day Type
  0,                                      ! Daylight Saving Time Indicator
  Dewpoint,                               ! Humidity Indicating Type
  ,                                       ! Humidity Indicating Day Schedule Name
  DefaultMultipliers,                     ! Dry-Bulb Temperature Range Modifier Type
  ,                                       ! Dry-Bulb Temperature Range Modifier Schedule Name
  ASHRAEClearSky;                         ! Solar Model Indicator

OS:ComponentData,
  {e32eb9c5-8dad-4e4e-b508-ce83f671aa09}, ! Handle
  Component Data 1,                       ! Name
  {14ce99c0-5c15-422d-919f-75ac0defda25}, ! UUID
  {63785d01-2467-4771-8ca0-612103434bf3}, ! Version UUID
  1366309081,                             ! Creation Timestamp
  1366309081,                             ! Version Timestamp
  {451c7c8e-87e3-4477-a5fa-4b4cac199cab}; ! Name of Object 1

