
OS:Version,
  {3e19f641-3f65-48cb-9913-226b39bdbb54}, ! Handle
  0.9.3;                                  ! Version Identifier

OS:SizingPeriod:DesignDay,
  {cfa8775a-61ee-497f-9e7f-76b2197ba1a3}, ! Handle
  LA_CROSSE Ann Clg 1% Condns Enth=>MDB,  ! Name
  29.5,                                   ! Maximum Dry-Bulb Temperature {C}
  11.1,                                   ! Daily Dry-Bulb Temperature Range {deltaC}
  74600,                                  ! Humidity Indicating Conditions at Maximum Dry-Bulb {BasedOnField A3}
  98886,                                  ! Barometric Pressure {Pa}
  5.4,                                    ! Wind Speed {m/s}
  180,                                    ! Wind Direction {deg}
  0,                                      ! Sky Clearness
  0,                                      ! Rain Indicator
  0,                                      ! Snow Indicator
  21,                                     ! Day of Month
  7,                                      ! Month
  SummerDesignDay,                        ! Day Type
  0,                                      ! Daylight Saving Time Indicator
  Enthalpy,                               ! Humidity Indicating Type
  ,                                       ! Humidity Indicating Day Schedule Name
  DefaultMultipliers,                     ! Dry-Bulb Temperature Range Modifier Type
  ,                                       ! Dry-Bulb Temperature Range Modifier Schedule Name
  ASHRAETau,                              ! Solar Model Indicator
  ,                                       ! Beam Solar Day Schedule Name
  ,                                       ! Diffuse Solar Day Schedule Name
  0.431,                                  ! ASHRAE Taub {dimensionless}
  2.126;                                  ! ASHRAE Taud {dimensionless}

OS:ComponentData,
  {4ff87dd6-fba3-49a3-a933-9ffc0db1d85a}, ! Handle
  Component Data 1,                       ! Name
  {22fd1f06-8446-4047-ace5-59662a5e7803}, ! UUID
  {d089951e-dd02-4166-8bed-07a9a91d1327}, ! Version UUID
  1366311504,                             ! Creation Timestamp
  1366311504,                             ! Version Timestamp
  {cfa8775a-61ee-497f-9e7f-76b2197ba1a3}; ! Name of Object 1

