
OS:Version,
  {f6c11d0c-49c2-4968-88dc-2aa3f93caabb}, ! Handle
  0.9.3;                                  ! Version Identifier

OS:SizingPeriod:DesignDay,
  {90ef4d82-f4db-4e20-9d85-0675bccbe073}, ! Handle
  Cincinnati Municipal Ap Lunki Ann Htg 99% Condns DB, ! Name
  -10.9,                                  ! Maximum Dry-Bulb Temperature {C}
  0,                                      ! Daily Dry-Bulb Temperature Range {deltaC}
  -10.9,                                  ! Humidity Indicating Conditions at Maximum Dry-Bulb {BasedOnField A3}
  99548,                                  ! Barometric Pressure {Pa}
  3.7,                                    ! Wind Speed {m/s}
  240,                                    ! Wind Direction {deg}
  0,                                      ! Sky Clearness
  0,                                      ! Rain Indicator
  0,                                      ! Snow Indicator
  21,                                     ! Day of Month
  1,                                      ! Month
  WinterDesignDay,                        ! Day Type
  0,                                      ! Daylight Saving Time Indicator
  Wetbulb,                                ! Humidity Indicating Type
  ,                                       ! Humidity Indicating Day Schedule Name
  DefaultMultipliers,                     ! Dry-Bulb Temperature Range Modifier Type
  ,                                       ! Dry-Bulb Temperature Range Modifier Schedule Name
  ASHRAEClearSky;                         ! Solar Model Indicator

OS:ComponentData,
  {f49864d0-1707-4425-9677-aacac687d638}, ! Handle
  Component Data 1,                       ! Name
  {5e8007e4-6bc6-4816-9307-8b7d72c94449}, ! UUID
  {476f897d-6d4c-4509-ba84-45249bd8cac7}, ! Version UUID
  1366309774,                             ! Creation Timestamp
  1366309774,                             ! Version Timestamp
  {90ef4d82-f4db-4e20-9d85-0675bccbe073}; ! Name of Object 1

