
OS:Version,
  {86263533-f402-4402-abab-84b3d8af49c6}, ! Handle
  0.9.3;                                  ! Version Identifier

OS:SizingPeriod:DesignDay,
  {28cc98c0-1d78-4834-98f8-37a98624067a}, ! Handle
  Eau Claire County Ap Ann Htg 99% Condns DB, ! Name
  -23.1,                                  ! Maximum Dry-Bulb Temperature {C}
  0,                                      ! Daily Dry-Bulb Temperature Range {deltaC}
  -23.1,                                  ! Humidity Indicating Conditions at Maximum Dry-Bulb {BasedOnField A3}
  98112,                                  ! Barometric Pressure {Pa}
  2.6,                                    ! Wind Speed {m/s}
  250,                                    ! Wind Direction {deg}
  0,                                      ! Sky Clearness
  0,                                      ! Rain Indicator
  0,                                      ! Snow Indicator
  21,                                     ! Day of Month
  1,                                      ! Month
  WinterDesignDay,                        ! Day Type
  0,                                      ! Daylight Saving Time Indicator
  Wetbulb,                                ! Humidity Indicating Type
  ,                                       ! Humidity Indicating Day Schedule Name
  DefaultMultipliers,                     ! Dry-Bulb Temperature Range Modifier Type
  ,                                       ! Dry-Bulb Temperature Range Modifier Schedule Name
  ASHRAEClearSky;                         ! Solar Model Indicator

OS:ComponentData,
  {a36dd56e-c529-49b1-aba4-9bd7fa589683}, ! Handle
  Component Data 1,                       ! Name
  {93621b97-5d28-467d-a091-bbd7ad599822}, ! UUID
  {114621b8-9d0e-4867-b0ee-efa1ef1f68b6}, ! Version UUID
  1366311473,                             ! Creation Timestamp
  1366311473,                             ! Version Timestamp
  {28cc98c0-1d78-4834-98f8-37a98624067a}; ! Name of Object 1

