
OS:Version,
  {abb742d8-e7f1-4745-97eb-2d773a12327a}, ! Handle
  0.9.3;                                  ! Version Identifier

OS:SizingPeriod:DesignDay,
  {73991ce0-c3a3-46ea-b1fc-d5d24eb7a22e}, ! Handle
  Detroit Metropolitan Arpt Ann Hum_n 99.6% Condns DP=>MCDB, ! Name
  -16.3,                                  ! Maximum Dry-Bulb Temperature {C}
  0,                                      ! Daily Dry-Bulb Temperature Range {deltaC}
  -21.7,                                  ! Humidity Indicating Conditions at Maximum Dry-Bulb {BasedOnField A3}
  99016,                                  ! Barometric Pressure {Pa}
  4.9,                                    ! Wind Speed {m/s}
  240,                                    ! Wind Direction {deg}
  0,                                      ! Sky Clearness
  0,                                      ! Rain Indicator
  0,                                      ! Snow Indicator
  21,                                     ! Day of Month
  1,                                      ! Month
  WinterDesignDay,                        ! Day Type
  0,                                      ! Daylight Saving Time Indicator
  Dewpoint,                               ! Humidity Indicating Type
  ,                                       ! Humidity Indicating Day Schedule Name
  DefaultMultipliers,                     ! Dry-Bulb Temperature Range Modifier Type
  ,                                       ! Dry-Bulb Temperature Range Modifier Schedule Name
  ASHRAEClearSky;                         ! Solar Model Indicator

OS:ComponentData,
  {d6277995-f909-4e03-b8fe-23236e95b65e}, ! Handle
  Component Data 1,                       ! Name
  {311a1fe0-3381-41c8-9292-8615d8542613}, ! UUID
  {3f0ea964-accc-475f-994c-6fef64d2dbf5}, ! Version UUID
  1366307987,                             ! Creation Timestamp
  1366307987,                             ! Version Timestamp
  {73991ce0-c3a3-46ea-b1fc-d5d24eb7a22e}; ! Name of Object 1

