
OS:Version,
  {091a9036-8437-4b92-b535-9ccaf0cb7ea2}, ! Handle
  0.9.3;                                  ! Version Identifier

OS:SizingPeriod:DesignDay,
  {c33cc666-895a-49fe-b61c-866e75309ea5}, ! Handle
  ATLANTA Ann Clg .4% Condns Enth=>MDB,   ! Name
  31.3,                                   ! Maximum Dry-Bulb Temperature {C}
  9.5,                                    ! Daily Dry-Bulb Temperature Range {deltaC}
  77900,                                  ! Humidity Indicating Conditions at Maximum Dry-Bulb {BasedOnField A3}
  97598,                                  ! Barometric Pressure {Pa}
  4,                                      ! Wind Speed {m/s}
  300,                                    ! Wind Direction {deg}
  0,                                      ! Sky Clearness
  0,                                      ! Rain Indicator
  0,                                      ! Snow Indicator
  21,                                     ! Day of Month
  7,                                      ! Month
  SummerDesignDay,                        ! Day Type
  0,                                      ! Daylight Saving Time Indicator
  Enthalpy,                               ! Humidity Indicating Type
  ,                                       ! Humidity Indicating Day Schedule Name
  DefaultMultipliers,                     ! Dry-Bulb Temperature Range Modifier Type
  ,                                       ! Dry-Bulb Temperature Range Modifier Schedule Name
  ASHRAETau,                              ! Solar Model Indicator
  ,                                       ! Beam Solar Day Schedule Name
  ,                                       ! Diffuse Solar Day Schedule Name
  0.556,                                  ! ASHRAE Taub {dimensionless}
  1.779;                                  ! ASHRAE Taud {dimensionless}

OS:ComponentData,
  {63b4c182-910d-4b89-83e8-f420bcf90b52}, ! Handle
  Component Data 1,                       ! Name
  {810a71f9-9d44-4760-bd14-3eef283e94fd}, ! UUID
  {b13b07ed-7ec4-4534-9aed-e84289b8d7d3}, ! Version UUID
  1366306982,                             ! Creation Timestamp
  1366306982,                             ! Version Timestamp
  {c33cc666-895a-49fe-b61c-866e75309ea5}; ! Name of Object 1

