
OS:Version,
  {a8e58c38-2221-44e0-9546-5a6bbd575ce3}, ! Handle
  0.9.3;                                  ! Version Identifier

OS:SizingPeriod:DesignDay,
  {2a03d55e-35fe-422c-873e-79b01581ea2f}, ! Handle
  Columbus Port Columbus Intl A Ann Htg 99.6% Condns DB, ! Name
  -16,                                    ! Maximum Dry-Bulb Temperature {C}
  0,                                      ! Daily Dry-Bulb Temperature Range {deltaC}
  -16,                                    ! Humidity Indicating Conditions at Maximum Dry-Bulb {BasedOnField A3}
  98393,                                  ! Barometric Pressure {Pa}
  3.6,                                    ! Wind Speed {m/s}
  260,                                    ! Wind Direction {deg}
  0,                                      ! Sky Clearness
  0,                                      ! Rain Indicator
  0,                                      ! Snow Indicator
  21,                                     ! Day of Month
  1,                                      ! Month
  WinterDesignDay,                        ! Day Type
  0,                                      ! Daylight Saving Time Indicator
  Wetbulb,                                ! Humidity Indicating Type
  ,                                       ! Humidity Indicating Day Schedule Name
  DefaultMultipliers,                     ! Dry-Bulb Temperature Range Modifier Type
  ,                                       ! Dry-Bulb Temperature Range Modifier Schedule Name
  ASHRAEClearSky;                         ! Solar Model Indicator

OS:ComponentData,
  {a7ffb7f2-2d7f-42a1-bf06-379630fd1086}, ! Handle
  Component Data 1,                       ! Name
  {8d03bcd0-4998-4cd4-a7c7-08610243feb7}, ! UUID
  {51994500-d559-4a0b-acfe-4a8f0c53555d}, ! Version UUID
  1366309797,                             ! Creation Timestamp
  1366309797,                             ! Version Timestamp
  {2a03d55e-35fe-422c-873e-79b01581ea2f}; ! Name of Object 1

