
OS:Version,
  {ad132311-9c8f-4cc6-a7cf-e5db3c817df0}, ! Handle
  0.9.3;                                  ! Version Identifier

OS:SizingPeriod:DesignDay,
  {4c8235ec-3cc5-48c2-9226-1c0e8b3bc819}, ! Handle
  Boise Air Terminal  Uo Ann Clg 2% Condns DB=>MWB, ! Name
  33.3,                                   ! Maximum Dry-Bulb Temperature {C}
  16.7,                                   ! Daily Dry-Bulb Temperature Range {deltaC}
  16.7,                                   ! Humidity Indicating Conditions at Maximum Dry-Bulb {BasedOnField A3}
  93182,                                  ! Barometric Pressure {Pa}
  4.2,                                    ! Wind Speed {m/s}
  330,                                    ! Wind Direction {deg}
  0,                                      ! Sky Clearness
  0,                                      ! Rain Indicator
  0,                                      ! Snow Indicator
  21,                                     ! Day of Month
  7,                                      ! Month
  SummerDesignDay,                        ! Day Type
  0,                                      ! Daylight Saving Time Indicator
  Wetbulb,                                ! Humidity Indicating Type
  ,                                       ! Humidity Indicating Day Schedule Name
  DefaultMultipliers,                     ! Dry-Bulb Temperature Range Modifier Type
  ,                                       ! Dry-Bulb Temperature Range Modifier Schedule Name
  ASHRAETau,                              ! Solar Model Indicator
  ,                                       ! Beam Solar Day Schedule Name
  ,                                       ! Diffuse Solar Day Schedule Name
  0.398,                                  ! ASHRAE Taub {dimensionless}
  2.125;                                  ! ASHRAE Taud {dimensionless}

OS:ComponentData,
  {991ef3df-9239-414d-870f-7589d2b7bcbc}, ! Handle
  Component Data 1,                       ! Name
  {96448920-099a-43f1-9a45-39967a0e5215}, ! UUID
  {effe6a50-dd5a-45ae-9299-6c03e8b41657}, ! Version UUID
  1366307270,                             ! Creation Timestamp
  1366307270,                             ! Version Timestamp
  {4c8235ec-3cc5-48c2-9226-1c0e8b3bc819}; ! Name of Object 1

