
OS:Version,
  {688f0221-50be-49d1-94a8-d6e7a810a570}, ! Handle
  0.9.3;                                  ! Version Identifier

OS:SizingPeriod:DesignDay,
  {ff45f4af-f747-4e82-90f2-5d92c1bdc4c7}, ! Handle
  Greensboro Piedmont Triad Int Ann Clg .4% Condns DB=>MWB, ! Name
  33.4,                                   ! Maximum Dry-Bulb Temperature {C}
  9.9,                                    ! Daily Dry-Bulb Temperature Range {deltaC}
  23.7,                                   ! Humidity Indicating Conditions at Maximum Dry-Bulb {BasedOnField A3}
  98088,                                  ! Barometric Pressure {Pa}
  3.4,                                    ! Wind Speed {m/s}
  230,                                    ! Wind Direction {deg}
  0,                                      ! Sky Clearness
  0,                                      ! Rain Indicator
  0,                                      ! Snow Indicator
  21,                                     ! Day of Month
  7,                                      ! Month
  SummerDesignDay,                        ! Day Type
  0,                                      ! Daylight Saving Time Indicator
  Wetbulb,                                ! Humidity Indicating Type
  ,                                       ! Humidity Indicating Day Schedule Name
  DefaultMultipliers,                     ! Dry-Bulb Temperature Range Modifier Type
  ,                                       ! Dry-Bulb Temperature Range Modifier Schedule Name
  ASHRAETau,                              ! Solar Model Indicator
  ,                                       ! Beam Solar Day Schedule Name
  ,                                       ! Diffuse Solar Day Schedule Name
  0.557,                                  ! ASHRAE Taub {dimensionless}
  1.757;                                  ! ASHRAE Taud {dimensionless}

OS:ComponentData,
  {01542518-8c7f-4475-a18c-fbc1662d9298}, ! Handle
  Component Data 1,                       ! Name
  {a23fabc8-1c57-4bf6-ae2f-e6ca439ab553}, ! UUID
  {6016a1ad-ef99-4e2d-81c7-939778def797}, ! Version UUID
  1366308932,                             ! Creation Timestamp
  1366308932,                             ! Version Timestamp
  {ff45f4af-f747-4e82-90f2-5d92c1bdc4c7}; ! Name of Object 1

