
OS:Version,
  {c2ea77b5-0197-464f-b2ce-21624b82b82e}, ! Handle
  0.9.3;                                  ! Version Identifier

OS:SizingPeriod:DesignDay,
  {f8719ccb-3f4a-4de0-a349-a3e4ef9e6df3}, ! Handle
  EL_PASO Ann Clg 2% Condns DP=>MDB,      ! Name
  23.3,                                   ! Maximum Dry-Bulb Temperature {C}
  13,                                     ! Daily Dry-Bulb Temperature Range {deltaC}
  17.9,                                   ! Humidity Indicating Conditions at Maximum Dry-Bulb {BasedOnField A3}
  87780,                                  ! Barometric Pressure {Pa}
  3.9,                                    ! Wind Speed {m/s}
  280,                                    ! Wind Direction {deg}
  0,                                      ! Sky Clearness
  0,                                      ! Rain Indicator
  0,                                      ! Snow Indicator
  21,                                     ! Day of Month
  7,                                      ! Month
  SummerDesignDay,                        ! Day Type
  0,                                      ! Daylight Saving Time Indicator
  Dewpoint,                               ! Humidity Indicating Type
  ,                                       ! Humidity Indicating Day Schedule Name
  DefaultMultipliers,                     ! Dry-Bulb Temperature Range Modifier Type
  ,                                       ! Dry-Bulb Temperature Range Modifier Schedule Name
  ASHRAETau,                              ! Solar Model Indicator
  ,                                       ! Beam Solar Day Schedule Name
  ,                                       ! Diffuse Solar Day Schedule Name
  0.605,                                  ! ASHRAE Taub {dimensionless}
  1.547;                                  ! ASHRAE Taud {dimensionless}

OS:ComponentData,
  {49ee907a-8ce8-4c6c-9aa6-c07c4e4d2ea0}, ! Handle
  Component Data 1,                       ! Name
  {c804356c-5d4f-40f7-8090-6672f426da52}, ! UUID
  {dfc5a889-5916-4839-84ee-4216b2d1b170}, ! Version UUID
  1366310685,                             ! Creation Timestamp
  1366310685,                             ! Version Timestamp
  {f8719ccb-3f4a-4de0-a349-a3e4ef9e6df3}; ! Name of Object 1

