
OS:Version,
  {be5587c8-d371-465a-bfe1-f875f3029620}, ! Handle
  0.9.3;                                  ! Version Identifier

OS:SizingPeriod:DesignDay,
  {9247f562-064c-45f1-8005-d714ed79def8}, ! Handle
  Greenwood Leflore Arpt Ann Htg 99.6% Condns DB, ! Name
  -6.4,                                   ! Maximum Dry-Bulb Temperature {C}
  0,                                      ! Daily Dry-Bulb Temperature Range {deltaC}
  -6.4,                                   ! Humidity Indicating Conditions at Maximum Dry-Bulb {BasedOnField A3}
  100762,                                 ! Barometric Pressure {Pa}
  2.7,                                    ! Wind Speed {m/s}
  0,                                      ! Wind Direction {deg}
  0,                                      ! Sky Clearness
  0,                                      ! Rain Indicator
  0,                                      ! Snow Indicator
  21,                                     ! Day of Month
  1,                                      ! Month
  WinterDesignDay,                        ! Day Type
  0,                                      ! Daylight Saving Time Indicator
  Wetbulb,                                ! Humidity Indicating Type
  ,                                       ! Humidity Indicating Day Schedule Name
  DefaultMultipliers,                     ! Dry-Bulb Temperature Range Modifier Type
  ,                                       ! Dry-Bulb Temperature Range Modifier Schedule Name
  ASHRAEClearSky;                         ! Solar Model Indicator

OS:ComponentData,
  {001012b4-d802-4765-a3ee-9afbaf51dbb5}, ! Handle
  Component Data 1,                       ! Name
  {9ecf7760-0901-4867-a6f9-a1e22ad00ab4}, ! UUID
  {fb28de66-27eb-4f5c-a109-ba04a36f440e}, ! Version UUID
  1366308624,                             ! Creation Timestamp
  1366308624,                             ! Version Timestamp
  {9247f562-064c-45f1-8005-d714ed79def8}; ! Name of Object 1

