
OS:Version,
  {bf3a2cfb-c497-42fb-b4fa-48bf11dbf491}, ! Handle
  0.9.3;                                  ! Version Identifier

OS:SizingPeriod:DesignDay,
  {e1feeac0-ea7f-48d9-a220-4bb387e80171}, ! Handle
  Beale Afb Ann Clg 1% Condns WB=>MDB,    ! Name
  34.2,                                   ! Maximum Dry-Bulb Temperature {C}
  16.6,                                   ! Daily Dry-Bulb Temperature Range {deltaC}
  21.8,                                   ! Humidity Indicating Conditions at Maximum Dry-Bulb {BasedOnField A3}
  100869,                                 ! Barometric Pressure {Pa}
  2.4,                                    ! Wind Speed {m/s}
  200,                                    ! Wind Direction {deg}
  0,                                      ! Sky Clearness
  0,                                      ! Rain Indicator
  0,                                      ! Snow Indicator
  21,                                     ! Day of Month
  7,                                      ! Month
  SummerDesignDay,                        ! Day Type
  0,                                      ! Daylight Saving Time Indicator
  Wetbulb,                                ! Humidity Indicating Type
  ,                                       ! Humidity Indicating Day Schedule Name
  DefaultMultipliers,                     ! Dry-Bulb Temperature Range Modifier Type
  ,                                       ! Dry-Bulb Temperature Range Modifier Schedule Name
  ASHRAETau,                              ! Solar Model Indicator
  ,                                       ! Beam Solar Day Schedule Name
  ,                                       ! Diffuse Solar Day Schedule Name
  0.381,                                  ! ASHRAE Taub {dimensionless}
  2.368;                                  ! ASHRAE Taud {dimensionless}

OS:ComponentData,
  {0913ac54-ff04-4798-b528-5c0a1c9fb425}, ! Handle
  Component Data 1,                       ! Name
  {0f8219a5-ea60-4662-b138-c20f202af049}, ! UUID
  {118595fa-c397-4179-9c59-96b39d802e9b}, ! Version UUID
  1366306379,                             ! Creation Timestamp
  1366306379,                             ! Version Timestamp
  {e1feeac0-ea7f-48d9-a220-4bb387e80171}; ! Name of Object 1

