
OS:Version,
  {129ddd37-ca3c-4f5a-8eed-9086336c580d}, ! Handle
  0.9.3;                                  ! Version Identifier

OS:SizingPeriod:DesignDay,
  {9dcc05ff-1dba-4170-bb10-9c5d05aec230}, ! Handle
  Greensboro Piedmont Triad Int Ann Clg 1% Condns Enth=>MDB, ! Name
  30,                                     ! Maximum Dry-Bulb Temperature {C}
  9.9,                                    ! Daily Dry-Bulb Temperature Range {deltaC}
  74500,                                  ! Humidity Indicating Conditions at Maximum Dry-Bulb {BasedOnField A3}
  98088,                                  ! Barometric Pressure {Pa}
  3.4,                                    ! Wind Speed {m/s}
  230,                                    ! Wind Direction {deg}
  0,                                      ! Sky Clearness
  0,                                      ! Rain Indicator
  0,                                      ! Snow Indicator
  21,                                     ! Day of Month
  7,                                      ! Month
  SummerDesignDay,                        ! Day Type
  0,                                      ! Daylight Saving Time Indicator
  Enthalpy,                               ! Humidity Indicating Type
  ,                                       ! Humidity Indicating Day Schedule Name
  DefaultMultipliers,                     ! Dry-Bulb Temperature Range Modifier Type
  ,                                       ! Dry-Bulb Temperature Range Modifier Schedule Name
  ASHRAETau,                              ! Solar Model Indicator
  ,                                       ! Beam Solar Day Schedule Name
  ,                                       ! Diffuse Solar Day Schedule Name
  0.557,                                  ! ASHRAE Taub {dimensionless}
  1.757;                                  ! ASHRAE Taud {dimensionless}

OS:ComponentData,
  {9ea2ee4b-9ee9-4ece-aea6-c3842234ef89}, ! Handle
  Component Data 1,                       ! Name
  {9c6cb7e2-1d02-4392-a943-6fad118f88eb}, ! UUID
  {8cbcffa5-74f5-4340-b0cc-75a28e5172a5}, ! Version UUID
  1366308933,                             ! Creation Timestamp
  1366308933,                             ! Version Timestamp
  {9dcc05ff-1dba-4170-bb10-9c5d05aec230}; ! Name of Object 1

