
OS:Version,
  {84383f8c-4e8b-4b51-8f53-6cd4bb63a7d0}, ! Handle
  0.9.3;                                  ! Version Identifier

OS:SizingPeriod:DesignDay,
  {01de1ac0-fe02-45ba-b741-0623ebe48044}, ! Handle
  HUNTINGTON Ann Htg 99.6% Condns DB,     ! Name
  -13.1,                                  ! Maximum Dry-Bulb Temperature {C}
  0,                                      ! Daily Dry-Bulb Temperature Range {deltaC}
  -13.1,                                  ! Humidity Indicating Conditions at Maximum Dry-Bulb {BasedOnField A3}
  98299,                                  ! Barometric Pressure {Pa}
  2.9,                                    ! Wind Speed {m/s}
  240,                                    ! Wind Direction {deg}
  0,                                      ! Sky Clearness
  0,                                      ! Rain Indicator
  0,                                      ! Snow Indicator
  21,                                     ! Day of Month
  1,                                      ! Month
  WinterDesignDay,                        ! Day Type
  0,                                      ! Daylight Saving Time Indicator
  Wetbulb,                                ! Humidity Indicating Type
  ,                                       ! Humidity Indicating Day Schedule Name
  DefaultMultipliers,                     ! Dry-Bulb Temperature Range Modifier Type
  ,                                       ! Dry-Bulb Temperature Range Modifier Schedule Name
  ASHRAEClearSky;                         ! Solar Model Indicator

OS:ComponentData,
  {a518ea2f-d708-4292-93fb-76322165bd29}, ! Handle
  Component Data 1,                       ! Name
  {4da1b53d-8913-4a4a-82f8-1f819a4c1f0c}, ! UUID
  {a6620a0b-c083-4005-8f5c-36f67181e502}, ! Version UUID
  1366311656,                             ! Creation Timestamp
  1366311656,                             ! Version Timestamp
  {01de1ac0-fe02-45ba-b741-0623ebe48044}; ! Name of Object 1

