
OS:Version,
  {510d68a2-f1a8-407f-9659-ab2fe96526e6}, ! Handle
  0.9.3;                                  ! Version Identifier

OS:SizingPeriod:DesignDay,
  {52ada37b-3c6e-4b05-8759-dcb9adeb5ea3}, ! Handle
  Aurora Buckley Field Angb Ann Clg 1% Condns Enth=>MDB, ! Name
  25.7,                                   ! Maximum Dry-Bulb Temperature {C}
  14.8,                                   ! Daily Dry-Bulb Temperature Range {deltaC}
  54500,                                  ! Humidity Indicating Conditions at Maximum Dry-Bulb {BasedOnField A3}
  82237,                                  ! Barometric Pressure {Pa}
  3.6,                                    ! Wind Speed {m/s}
  30,                                     ! Wind Direction {deg}
  0,                                      ! Sky Clearness
  0,                                      ! Rain Indicator
  0,                                      ! Snow Indicator
  21,                                     ! Day of Month
  7,                                      ! Month
  SummerDesignDay,                        ! Day Type
  0,                                      ! Daylight Saving Time Indicator
  Enthalpy,                               ! Humidity Indicating Type
  ,                                       ! Humidity Indicating Day Schedule Name
  DefaultMultipliers,                     ! Dry-Bulb Temperature Range Modifier Type
  ,                                       ! Dry-Bulb Temperature Range Modifier Schedule Name
  ASHRAETau,                              ! Solar Model Indicator
  ,                                       ! Beam Solar Day Schedule Name
  ,                                       ! Diffuse Solar Day Schedule Name
  0.423,                                  ! ASHRAE Taub {dimensionless}
  2.02;                                   ! ASHRAE Taud {dimensionless}

OS:ComponentData,
  {a68b7257-3ad4-4105-9256-c54399ec2229}, ! Handle
  Component Data 1,                       ! Name
  {bc6c3331-bd4c-45e8-8a71-0b47e087352f}, ! UUID
  {727363a1-d3f3-4002-8d9b-19317c182d39}, ! Version UUID
  1366306654,                             ! Creation Timestamp
  1366306654,                             ! Version Timestamp
  {52ada37b-3c6e-4b05-8759-dcb9adeb5ea3}; ! Name of Object 1

