
OS:Version,
  {7c4db450-b473-4a73-8f39-4e6af418e88b}, ! Handle
  0.9.3;                                  ! Version Identifier

OS:SizingPeriod:DesignDay,
  {159c38bc-9e2e-45c0-9d59-d3a01389db13}, ! Handle
  Harrison Faa Ap Ann Htg 99.6% Condns DB, ! Name
  -12.3,                                  ! Maximum Dry-Bulb Temperature {C}
  0,                                      ! Daily Dry-Bulb Temperature Range {deltaC}
  -12.3,                                  ! Humidity Indicating Conditions at Maximum Dry-Bulb {BasedOnField A3}
  96392,                                  ! Barometric Pressure {Pa}
  4.5,                                    ! Wind Speed {m/s}
  310,                                    ! Wind Direction {deg}
  0,                                      ! Sky Clearness
  0,                                      ! Rain Indicator
  0,                                      ! Snow Indicator
  21,                                     ! Day of Month
  1,                                      ! Month
  WinterDesignDay,                        ! Day Type
  0,                                      ! Daylight Saving Time Indicator
  Wetbulb,                                ! Humidity Indicating Type
  ,                                       ! Humidity Indicating Day Schedule Name
  DefaultMultipliers,                     ! Dry-Bulb Temperature Range Modifier Type
  ,                                       ! Dry-Bulb Temperature Range Modifier Schedule Name
  ASHRAEClearSky;                         ! Solar Model Indicator

OS:ComponentData,
  {0e92955c-fd19-4514-a9be-d2eb1963984d}, ! Handle
  Component Data 1,                       ! Name
  {0382e4d0-d45f-4d57-ac03-e4f865abd16c}, ! UUID
  {0820dba8-ad67-4c12-bad1-d0a5163eb8a6}, ! Version UUID
  1366306214,                             ! Creation Timestamp
  1366306214,                             ! Version Timestamp
  {159c38bc-9e2e-45c0-9d59-d3a01389db13}; ! Name of Object 1

