
OS:Version,
  {6d73407e-b0b1-43b7-b77a-74fad825cc3e}, ! Handle
  0.9.3;                                  ! Version Identifier

OS:SizingPeriod:DesignDay,
  {01623d49-4d96-4667-b11f-c616b05f8151}, ! Handle
  Cedar Rapids Municipal Ap Ann Htg 99.6% Condns DB, ! Name
  -23.1,                                  ! Maximum Dry-Bulb Temperature {C}
  0,                                      ! Daily Dry-Bulb Temperature Range {deltaC}
  -23.1,                                  ! Humidity Indicating Conditions at Maximum Dry-Bulb {BasedOnField A3}
  98287,                                  ! Barometric Pressure {Pa}
  4.7,                                    ! Wind Speed {m/s}
  300,                                    ! Wind Direction {deg}
  0,                                      ! Sky Clearness
  0,                                      ! Rain Indicator
  0,                                      ! Snow Indicator
  21,                                     ! Day of Month
  1,                                      ! Month
  WinterDesignDay,                        ! Day Type
  0,                                      ! Daylight Saving Time Indicator
  Wetbulb,                                ! Humidity Indicating Type
  ,                                       ! Humidity Indicating Day Schedule Name
  DefaultMultipliers,                     ! Dry-Bulb Temperature Range Modifier Type
  ,                                       ! Dry-Bulb Temperature Range Modifier Schedule Name
  ASHRAEClearSky;                         ! Solar Model Indicator

OS:ComponentData,
  {07081d4b-1a3b-4b1a-b14c-babca0c71e33}, ! Handle
  Component Data 1,                       ! Name
  {2b39d6f3-4d47-408a-9d5f-ae3531abbafc}, ! UUID
  {4d29d295-b02d-473b-9e31-b6a5a5b3063a}, ! Version UUID
  1366307148,                             ! Creation Timestamp
  1366307148,                             ! Version Timestamp
  {01623d49-4d96-4667-b11f-c616b05f8151}; ! Name of Object 1

