
OS:Version,
  {937f5303-89f3-4516-b3c1-525b5fe0b2c2}, ! Handle
  0.9.3;                                  ! Version Identifier

OS:SizingPeriod:DesignDay,
  {e90937dc-945a-43de-898c-1ad1e46d0a1c}, ! Handle
  Grand Island Central Ne Regio Ann Clg .4% Condns WB=>MDB, ! Name
  31.8,                                   ! Maximum Dry-Bulb Temperature {C}
  12.2,                                   ! Daily Dry-Bulb Temperature Range {deltaC}
  25.1,                                   ! Humidity Indicating Conditions at Maximum Dry-Bulb {BasedOnField A3}
  94765,                                  ! Barometric Pressure {Pa}
  6.5,                                    ! Wind Speed {m/s}
  180,                                    ! Wind Direction {deg}
  0,                                      ! Sky Clearness
  0,                                      ! Rain Indicator
  0,                                      ! Snow Indicator
  21,                                     ! Day of Month
  7,                                      ! Month
  SummerDesignDay,                        ! Day Type
  0,                                      ! Daylight Saving Time Indicator
  Wetbulb,                                ! Humidity Indicating Type
  ,                                       ! Humidity Indicating Day Schedule Name
  DefaultMultipliers,                     ! Dry-Bulb Temperature Range Modifier Type
  ,                                       ! Dry-Bulb Temperature Range Modifier Schedule Name
  ASHRAETau,                              ! Solar Model Indicator
  ,                                       ! Beam Solar Day Schedule Name
  ,                                       ! Diffuse Solar Day Schedule Name
  0.405,                                  ! ASHRAE Taub {dimensionless}
  2.23;                                   ! ASHRAE Taud {dimensionless}

OS:ComponentData,
  {4b593679-c3c7-4ee6-98ba-946670f94b0d}, ! Handle
  Component Data 1,                       ! Name
  {21a7d3fc-b787-43c0-a174-18a2ee857ea7}, ! UUID
  {1aef69af-bde3-4fed-8dbc-c7d2045778e5}, ! Version UUID
  1366309113,                             ! Creation Timestamp
  1366309113,                             ! Version Timestamp
  {e90937dc-945a-43de-898c-1ad1e46d0a1c}; ! Name of Object 1

