
OS:Version,
  {564c991a-1bed-4df3-953b-6239fae7c408}, ! Handle
  0.9.3;                                  ! Version Identifier

OS:SizingPeriod:DesignDay,
  {3cfd7684-2c10-48f2-8c39-8d5a6155b07c}, ! Handle
  Fresno Yosemite Intl Ap Ann Htg 99% Condns DB, ! Name
  0.9,                                    ! Maximum Dry-Bulb Temperature {C}
  0,                                      ! Daily Dry-Bulb Temperature Range {deltaC}
  0.9,                                    ! Humidity Indicating Conditions at Maximum Dry-Bulb {BasedOnField A3}
  100106,                                 ! Barometric Pressure {Pa}
  1.2,                                    ! Wind Speed {m/s}
  80,                                     ! Wind Direction {deg}
  0,                                      ! Sky Clearness
  0,                                      ! Rain Indicator
  0,                                      ! Snow Indicator
  21,                                     ! Day of Month
  12,                                     ! Month
  WinterDesignDay,                        ! Day Type
  0,                                      ! Daylight Saving Time Indicator
  Wetbulb,                                ! Humidity Indicating Type
  ,                                       ! Humidity Indicating Day Schedule Name
  DefaultMultipliers,                     ! Dry-Bulb Temperature Range Modifier Type
  ,                                       ! Dry-Bulb Temperature Range Modifier Schedule Name
  ASHRAEClearSky;                         ! Solar Model Indicator

OS:ComponentData,
  {3e62185f-b01a-4b2f-b86e-7814eae7ec6c}, ! Handle
  Component Data 1,                       ! Name
  {184547ed-8a70-4fdf-91ac-c116d283f83b}, ! UUID
  {e5546069-3a60-44e6-a6c6-1f0167b1e3b2}, ! Version UUID
  1366306439,                             ! Creation Timestamp
  1366306439,                             ! Version Timestamp
  {3cfd7684-2c10-48f2-8c39-8d5a6155b07c}; ! Name of Object 1

