
OS:Version,
  {5ca445ca-fb55-48f3-a3fc-e2284630c056}, ! Handle
  0.9.3;                                  ! Version Identifier

OS:SizingPeriod:DesignDay,
  {9800076f-7d7b-4135-922d-87e31bc3321c}, ! Handle
  Kelso Wb Ap Ann Clg 1% Condns DB=>MWB,  ! Name
  28,                                     ! Maximum Dry-Bulb Temperature {C}
  11.6,                                   ! Daily Dry-Bulb Temperature Range {deltaC}
  18.8,                                   ! Humidity Indicating Conditions at Maximum Dry-Bulb {BasedOnField A3}
  101265,                                 ! Barometric Pressure {Pa}
  4,                                      ! Wind Speed {m/s}
  330,                                    ! Wind Direction {deg}
  0,                                      ! Sky Clearness
  0,                                      ! Rain Indicator
  0,                                      ! Snow Indicator
  21,                                     ! Day of Month
  7,                                      ! Month
  SummerDesignDay,                        ! Day Type
  0,                                      ! Daylight Saving Time Indicator
  Wetbulb,                                ! Humidity Indicating Type
  ,                                       ! Humidity Indicating Day Schedule Name
  DefaultMultipliers,                     ! Dry-Bulb Temperature Range Modifier Type
  ,                                       ! Dry-Bulb Temperature Range Modifier Schedule Name
  ASHRAETau,                              ! Solar Model Indicator
  ,                                       ! Beam Solar Day Schedule Name
  ,                                       ! Diffuse Solar Day Schedule Name
  0.364,                                  ! ASHRAE Taub {dimensionless}
  2.508;                                  ! ASHRAE Taud {dimensionless}

OS:ComponentData,
  {16e3b5b5-b650-46c6-b696-74df88669117}, ! Handle
  Component Data 1,                       ! Name
  {c2caa5bb-1c48-4af2-a7e2-041d8e2cea65}, ! UUID
  {27602e08-2d72-45de-84e1-0acb2aea5687}, ! Version UUID
  1366311297,                             ! Creation Timestamp
  1366311297,                             ! Version Timestamp
  {9800076f-7d7b-4135-922d-87e31bc3321c}; ! Name of Object 1

