
OS:Version,
  {f94b3014-352b-444e-9f1b-918f1c13ecee}, ! Handle
  0.9.3;                                  ! Version Identifier

OS:SizingPeriod:DesignDay,
  {06d95f0c-9c7b-4e5e-a529-25a11564b87c}, ! Handle
  Hays Muni  Awos Ann Htg 99.6% Condns DB, ! Name
  -16.3,                                  ! Maximum Dry-Bulb Temperature {C}
  0,                                      ! Daily Dry-Bulb Temperature Range {deltaC}
  -16.3,                                  ! Humidity Indicating Conditions at Maximum Dry-Bulb {BasedOnField A3}
  94220,                                  ! Barometric Pressure {Pa}
  3.9,                                    ! Wind Speed {m/s}
  330,                                    ! Wind Direction {deg}
  0,                                      ! Sky Clearness
  0,                                      ! Rain Indicator
  0,                                      ! Snow Indicator
  21,                                     ! Day of Month
  1,                                      ! Month
  WinterDesignDay,                        ! Day Type
  0,                                      ! Daylight Saving Time Indicator
  Wetbulb,                                ! Humidity Indicating Type
  ,                                       ! Humidity Indicating Day Schedule Name
  DefaultMultipliers,                     ! Dry-Bulb Temperature Range Modifier Type
  ,                                       ! Dry-Bulb Temperature Range Modifier Schedule Name
  ASHRAEClearSky;                         ! Solar Model Indicator

OS:ComponentData,
  {12c9e290-f57f-4724-a518-b972ed85a84d}, ! Handle
  Component Data 1,                       ! Name
  {39cf2e64-d7f4-4f10-9c9e-6341e8d0e50e}, ! UUID
  {eec3af9d-abf0-40cc-8966-1aa68b0ff53c}, ! Version UUID
  1366307544,                             ! Creation Timestamp
  1366307544,                             ! Version Timestamp
  {06d95f0c-9c7b-4e5e-a529-25a11564b87c}; ! Name of Object 1

