
OS:Version,
  {ef4c60f0-4212-4ade-ae8c-36f2649099ca}, ! Handle
  0.9.3;                                  ! Version Identifier

OS:SizingPeriod:DesignDay,
  {8401b850-6bea-4865-a6e4-8b5093277d7d}, ! Handle
  Long Beach Ann Clg 2% Condns WB=>MDB,   ! Name
  26.5,                                   ! Maximum Dry-Bulb Temperature {C}
  9.5,                                    ! Daily Dry-Bulb Temperature Range {deltaC}
  21,                                     ! Humidity Indicating Conditions at Maximum Dry-Bulb {BasedOnField A3}
  101181,                                 ! Barometric Pressure {Pa}
  4.1,                                    ! Wind Speed {m/s}
  280,                                    ! Wind Direction {deg}
  0,                                      ! Sky Clearness
  0,                                      ! Rain Indicator
  0,                                      ! Snow Indicator
  21,                                     ! Day of Month
  8,                                      ! Month
  SummerDesignDay,                        ! Day Type
  0,                                      ! Daylight Saving Time Indicator
  Wetbulb,                                ! Humidity Indicating Type
  ,                                       ! Humidity Indicating Day Schedule Name
  DefaultMultipliers,                     ! Dry-Bulb Temperature Range Modifier Type
  ,                                       ! Dry-Bulb Temperature Range Modifier Schedule Name
  ASHRAETau,                              ! Solar Model Indicator
  ,                                       ! Beam Solar Day Schedule Name
  ,                                       ! Diffuse Solar Day Schedule Name
  0.45,                                   ! ASHRAE Taub {dimensionless}
  2.074;                                  ! ASHRAE Taud {dimensionless}

OS:ComponentData,
  {f1929441-aea0-4dd3-8c4f-62e32e97d490}, ! Handle
  Component Data 1,                       ! Name
  {6d53ed61-d58a-43ac-bc1c-01cb689ffef3}, ! UUID
  {16996fc6-da51-40cc-b9b2-2ef837448e27}, ! Version UUID
  1366306470,                             ! Creation Timestamp
  1366306470,                             ! Version Timestamp
  {8401b850-6bea-4865-a6e4-8b5093277d7d}; ! Name of Object 1

