
OS:Version,
  {c7b57f80-3aed-41c7-82f6-8fd226d84367}, ! Handle
  0.9.3;                                  ! Version Identifier

OS:SizingPeriod:DesignDay,
  {e06544b0-2e39-4b26-b9d4-35458900d37b}, ! Handle
  Crossville Memorial Ap Ann Clg 1% Condns DP=>MDB, ! Name
  25.9,                                   ! Maximum Dry-Bulb Temperature {C}
  10.1,                                   ! Daily Dry-Bulb Temperature Range {deltaC}
  22.2,                                   ! Humidity Indicating Conditions at Maximum Dry-Bulb {BasedOnField A3}
  94674,                                  ! Barometric Pressure {Pa}
  3.1,                                    ! Wind Speed {m/s}
  270,                                    ! Wind Direction {deg}
  0,                                      ! Sky Clearness
  0,                                      ! Rain Indicator
  0,                                      ! Snow Indicator
  21,                                     ! Day of Month
  7,                                      ! Month
  SummerDesignDay,                        ! Day Type
  0,                                      ! Daylight Saving Time Indicator
  Dewpoint,                               ! Humidity Indicating Type
  ,                                       ! Humidity Indicating Day Schedule Name
  DefaultMultipliers,                     ! Dry-Bulb Temperature Range Modifier Type
  ,                                       ! Dry-Bulb Temperature Range Modifier Schedule Name
  ASHRAETau,                              ! Solar Model Indicator
  ,                                       ! Beam Solar Day Schedule Name
  ,                                       ! Diffuse Solar Day Schedule Name
  0.507,                                  ! ASHRAE Taub {dimensionless}
  1.867;                                  ! ASHRAE Taud {dimensionless}

OS:ComponentData,
  {25b239c8-795d-4925-bfc5-7e5583f4e74a}, ! Handle
  Component Data 1,                       ! Name
  {f048aee9-444e-422f-a4e8-f408eace3612}, ! UUID
  {3679cf85-1b68-4c3f-b062-22f8ce7b6ce3}, ! Version UUID
  1366310497,                             ! Creation Timestamp
  1366310497,                             ! Version Timestamp
  {e06544b0-2e39-4b26-b9d4-35458900d37b}; ! Name of Object 1

