
OS:Version,
  {2db2e460-ba8c-4b18-8b83-74d83cf54fea}, ! Handle
  0.9.3;                                  ! Version Identifier

OS:SizingPeriod:DesignDay,
  {9a2772bc-30ca-4720-b2cf-d0275c4f206b}, ! Handle
  Cherry Point Mcas Ann Clg 2% Condns Enth=>MDB, ! Name
  30.2,                                   ! Maximum Dry-Bulb Temperature {C}
  8.7,                                    ! Daily Dry-Bulb Temperature Range {deltaC}
  79300,                                  ! Humidity Indicating Conditions at Maximum Dry-Bulb {BasedOnField A3}
  101193,                                 ! Barometric Pressure {Pa}
  3.4,                                    ! Wind Speed {m/s}
  210,                                    ! Wind Direction {deg}
  0,                                      ! Sky Clearness
  0,                                      ! Rain Indicator
  0,                                      ! Snow Indicator
  21,                                     ! Day of Month
  7,                                      ! Month
  SummerDesignDay,                        ! Day Type
  0,                                      ! Daylight Saving Time Indicator
  Enthalpy,                               ! Humidity Indicating Type
  ,                                       ! Humidity Indicating Day Schedule Name
  DefaultMultipliers,                     ! Dry-Bulb Temperature Range Modifier Type
  ,                                       ! Dry-Bulb Temperature Range Modifier Schedule Name
  ASHRAETau,                              ! Solar Model Indicator
  ,                                       ! Beam Solar Day Schedule Name
  ,                                       ! Diffuse Solar Day Schedule Name
  0.581,                                  ! ASHRAE Taub {dimensionless}
  1.748;                                  ! ASHRAE Taud {dimensionless}

OS:ComponentData,
  {f22d562f-2548-47b5-8cfe-f4e64768e19b}, ! Handle
  Component Data 1,                       ! Name
  {d5f97f4a-22cf-4010-9347-47123d88b882}, ! UUID
  {e843065e-2d7c-4235-b2c4-2462511c5616}, ! Version UUID
  1366308906,                             ! Creation Timestamp
  1366308906,                             ! Version Timestamp
  {9a2772bc-30ca-4720-b2cf-d0275c4f206b}; ! Name of Object 1

