
OS:Version,
  {b9ce485a-c8ae-4806-bf06-d19924d08d47}, ! Handle
  0.9.3;                                  ! Version Identifier

OS:SizingPeriod:DesignDay,
  {86a230e5-1ba7-4e5d-9699-19a431fc45c2}, ! Handle
  Chula Vista Brown Field Naas Ann Clg 2% Condns DB=>MWB, ! Name
  27.5,                                   ! Maximum Dry-Bulb Temperature {C}
  8.9,                                    ! Daily Dry-Bulb Temperature Range {deltaC}
  18.4,                                   ! Humidity Indicating Conditions at Maximum Dry-Bulb {BasedOnField A3}
  99429,                                  ! Barometric Pressure {Pa}
  4.1,                                    ! Wind Speed {m/s}
  280,                                    ! Wind Direction {deg}
  0,                                      ! Sky Clearness
  0,                                      ! Rain Indicator
  0,                                      ! Snow Indicator
  21,                                     ! Day of Month
  8,                                      ! Month
  SummerDesignDay,                        ! Day Type
  0,                                      ! Daylight Saving Time Indicator
  Wetbulb,                                ! Humidity Indicating Type
  ,                                       ! Humidity Indicating Day Schedule Name
  DefaultMultipliers,                     ! Dry-Bulb Temperature Range Modifier Type
  ,                                       ! Dry-Bulb Temperature Range Modifier Schedule Name
  ASHRAETau,                              ! Solar Model Indicator
  ,                                       ! Beam Solar Day Schedule Name
  ,                                       ! Diffuse Solar Day Schedule Name
  0.412,                                  ! ASHRAE Taub {dimensionless}
  2.276;                                  ! ASHRAE Taud {dimensionless}

OS:ComponentData,
  {efecb5e2-80ae-4854-9983-40f89be21d39}, ! Handle
  Component Data 1,                       ! Name
  {c1062134-5361-467d-87fa-18906ad566d4}, ! UUID
  {e7f631f5-b9fb-4b37-8bb8-d57678434e45}, ! Version UUID
  1366306414,                             ! Creation Timestamp
  1366306414,                             ! Version Timestamp
  {86a230e5-1ba7-4e5d-9699-19a431fc45c2}; ! Name of Object 1

