
OS:Version,
  {7f49790a-dbf7-4a33-bf30-43c696a350dc}, ! Handle
  0.9.3;                                  ! Version Identifier

OS:SizingPeriod:DesignDay,
  {25d62f14-1215-46d0-966a-dbad10047e2e}, ! Handle
  Corvallis Muni Ann Clg .4% Condns Enth=>MDB, ! Name
  31.9,                                   ! Maximum Dry-Bulb Temperature {C}
  15.5,                                   ! Daily Dry-Bulb Temperature Range {deltaC}
  58000,                                  ! Humidity Indicating Conditions at Maximum Dry-Bulb {BasedOnField A3}
  100403,                                 ! Barometric Pressure {Pa}
  4.5,                                    ! Wind Speed {m/s}
  30,                                     ! Wind Direction {deg}
  0,                                      ! Sky Clearness
  0,                                      ! Rain Indicator
  0,                                      ! Snow Indicator
  21,                                     ! Day of Month
  7,                                      ! Month
  SummerDesignDay,                        ! Day Type
  0,                                      ! Daylight Saving Time Indicator
  Enthalpy,                               ! Humidity Indicating Type
  ,                                       ! Humidity Indicating Day Schedule Name
  DefaultMultipliers,                     ! Dry-Bulb Temperature Range Modifier Type
  ,                                       ! Dry-Bulb Temperature Range Modifier Schedule Name
  ASHRAETau,                              ! Solar Model Indicator
  ,                                       ! Beam Solar Day Schedule Name
  ,                                       ! Diffuse Solar Day Schedule Name
  0.357,                                  ! ASHRAE Taub {dimensionless}
  2.553;                                  ! ASHRAE Taud {dimensionless}

OS:ComponentData,
  {aabdab6f-f574-496b-aed2-1dcc59150376}, ! Handle
  Component Data 1,                       ! Name
  {cc1c5c34-2e65-4971-a202-8516bcdd8703}, ! UUID
  {284fca1e-2504-4ef6-a019-31029ab57b56}, ! Version UUID
  1366310003,                             ! Creation Timestamp
  1366310003,                             ! Version Timestamp
  {25d62f14-1215-46d0-966a-dbad10047e2e}; ! Name of Object 1

