
OS:Version,
  {9fc3ba13-1246-4de1-8457-8645ef29c463}, ! Handle
  0.9.3;                                  ! Version Identifier

OS:SizingPeriod:DesignDay,
  {82a3b108-2c9a-4a1e-a737-ab9cc85773ed}, ! Handle
  Homer Ann Clg 2% Condns DB=>MWB,        ! Name
  16.2,                                   ! Maximum Dry-Bulb Temperature {C}
  6.4,                                    ! Daily Dry-Bulb Temperature Range {deltaC}
  12.6,                                   ! Humidity Indicating Conditions at Maximum Dry-Bulb {BasedOnField A3}
  101025,                                 ! Barometric Pressure {Pa}
  4.4,                                    ! Wind Speed {m/s}
  250,                                    ! Wind Direction {deg}
  0,                                      ! Sky Clearness
  0,                                      ! Rain Indicator
  0,                                      ! Snow Indicator
  21,                                     ! Day of Month
  7,                                      ! Month
  SummerDesignDay,                        ! Day Type
  0,                                      ! Daylight Saving Time Indicator
  Wetbulb,                                ! Humidity Indicating Type
  ,                                       ! Humidity Indicating Day Schedule Name
  DefaultMultipliers,                     ! Dry-Bulb Temperature Range Modifier Type
  ,                                       ! Dry-Bulb Temperature Range Modifier Schedule Name
  ASHRAETau,                              ! Solar Model Indicator
  ,                                       ! Beam Solar Day Schedule Name
  ,                                       ! Diffuse Solar Day Schedule Name
  0.376,                                  ! ASHRAE Taub {dimensionless}
  2.236;                                  ! ASHRAE Taud {dimensionless}

OS:ComponentData,
  {4bc80dcb-ee45-4544-94d8-bf276c417a97}, ! Handle
  Component Data 1,                       ! Name
  {992f1550-46d7-4a26-80e2-2eeb55a529cb}, ! UUID
  {084351dc-598a-4725-9faf-d54b483d6090}, ! Version UUID
  1366305304,                             ! Creation Timestamp
  1366305304,                             ! Version Timestamp
  {82a3b108-2c9a-4a1e-a737-ab9cc85773ed}; ! Name of Object 1

