
OS:Version,
  {ecb24c0c-70e7-4b08-94f9-ab9867d2622d}, ! Handle
  0.9.3;                                  ! Version Identifier

OS:SizingPeriod:DesignDay,
  {f30daa8e-99ad-4c62-928a-ce7e4f4b4de2}, ! Handle
  Boone Muni Ann Clg .4% Condns Enth=>MDB, ! Name
  32.6,                                   ! Maximum Dry-Bulb Temperature {C}
  10.2,                                   ! Daily Dry-Bulb Temperature Range {deltaC}
  88600,                                  ! Humidity Indicating Conditions at Maximum Dry-Bulb {BasedOnField A3}
  97144,                                  ! Barometric Pressure {Pa}
  4.5,                                    ! Wind Speed {m/s}
  190,                                    ! Wind Direction {deg}
  0,                                      ! Sky Clearness
  0,                                      ! Rain Indicator
  0,                                      ! Snow Indicator
  21,                                     ! Day of Month
  7,                                      ! Month
  SummerDesignDay,                        ! Day Type
  0,                                      ! Daylight Saving Time Indicator
  Enthalpy,                               ! Humidity Indicating Type
  ,                                       ! Humidity Indicating Day Schedule Name
  DefaultMultipliers,                     ! Dry-Bulb Temperature Range Modifier Type
  ,                                       ! Dry-Bulb Temperature Range Modifier Schedule Name
  ASHRAETau,                              ! Solar Model Indicator
  ,                                       ! Beam Solar Day Schedule Name
  ,                                       ! Diffuse Solar Day Schedule Name
  0.415,                                  ! ASHRAE Taub {dimensionless}
  2.199;                                  ! ASHRAE Taud {dimensionless}

OS:ComponentData,
  {02196863-73be-4f9a-9fd3-0320d6267436}, ! Handle
  Component Data 1,                       ! Name
  {96efbb05-eb30-4e6b-b319-09af129cd84a}, ! UUID
  {6983da47-2ed2-4b8c-adfc-945ee88f4526}, ! Version UUID
  1366307137,                             ! Creation Timestamp
  1366307137,                             ! Version Timestamp
  {f30daa8e-99ad-4c62-928a-ce7e4f4b4de2}; ! Name of Object 1

