
OS:Version,
  {853a44af-1b64-4d8b-bacf-d4983107f292}, ! Handle
  0.9.3;                                  ! Version Identifier

OS:SizingPeriod:DesignDay,
  {69acd80a-0ccc-412f-a268-93c7ad4fdeb2}, ! Handle
  Austin Mueller Municipal Ap Ann Clg .4% Condns Enth=>MDB, ! Name
  32,                                     ! Maximum Dry-Bulb Temperature {C}
  12.5,                                   ! Daily Dry-Bulb Temperature Range {deltaC}
  81800,                                  ! Humidity Indicating Conditions at Maximum Dry-Bulb {BasedOnField A3}
  98792,                                  ! Barometric Pressure {Pa}
  3.7,                                    ! Wind Speed {m/s}
  190,                                    ! Wind Direction {deg}
  0,                                      ! Sky Clearness
  0,                                      ! Rain Indicator
  0,                                      ! Snow Indicator
  21,                                     ! Day of Month
  8,                                      ! Month
  SummerDesignDay,                        ! Day Type
  0,                                      ! Daylight Saving Time Indicator
  Enthalpy,                               ! Humidity Indicating Type
  ,                                       ! Humidity Indicating Day Schedule Name
  DefaultMultipliers,                     ! Dry-Bulb Temperature Range Modifier Type
  ,                                       ! Dry-Bulb Temperature Range Modifier Schedule Name
  ASHRAETau,                              ! Solar Model Indicator
  ,                                       ! Beam Solar Day Schedule Name
  ,                                       ! Diffuse Solar Day Schedule Name
  0.457,                                  ! ASHRAE Taub {dimensionless}
  2.114;                                  ! ASHRAE Taud {dimensionless}

OS:ComponentData,
  {2b30eeee-8748-4b99-b5f0-525f3ad4bb74}, ! Handle
  Component Data 1,                       ! Name
  {6956f780-9bdc-4bba-acde-1982dc57ffed}, ! UUID
  {9cdfde5f-69ca-43fd-b490-d008a81bea1a}, ! Version UUID
  1366310587,                             ! Creation Timestamp
  1366310587,                             ! Version Timestamp
  {69acd80a-0ccc-412f-a268-93c7ad4fdeb2}; ! Name of Object 1

