
OS:Version,
  {703c44cf-7e0a-429d-9c94-7f1d9f706a83}, ! Handle
  0.9.3;                                  ! Version Identifier

OS:SizingPeriod:DesignDay,
  {87292ac8-ea88-49e8-8cfc-d02096ffb232}, ! Handle
  Bakersfield Meadows Field Ann Htg 99% Condns DB, ! Name
  1.6,                                    ! Maximum Dry-Bulb Temperature {C}
  0,                                      ! Daily Dry-Bulb Temperature Range {deltaC}
  1.6,                                    ! Humidity Indicating Conditions at Maximum Dry-Bulb {BasedOnField A3}
  99548,                                  ! Barometric Pressure {Pa}
  1.7,                                    ! Wind Speed {m/s}
  90,                                     ! Wind Direction {deg}
  0,                                      ! Sky Clearness
  0,                                      ! Rain Indicator
  0,                                      ! Snow Indicator
  21,                                     ! Day of Month
  12,                                     ! Month
  WinterDesignDay,                        ! Day Type
  0,                                      ! Daylight Saving Time Indicator
  Wetbulb,                                ! Humidity Indicating Type
  ,                                       ! Humidity Indicating Day Schedule Name
  DefaultMultipliers,                     ! Dry-Bulb Temperature Range Modifier Type
  ,                                       ! Dry-Bulb Temperature Range Modifier Schedule Name
  ASHRAEClearSky;                         ! Solar Model Indicator

OS:ComponentData,
  {33827c8d-752a-4bfa-945e-897dfe258798}, ! Handle
  Component Data 1,                       ! Name
  {0da36893-080d-4bcc-9707-e4b3308fcfac}, ! UUID
  {1f380ffe-bbba-4eb5-beac-6512bed2ffff}, ! Version UUID
  1366306363,                             ! Creation Timestamp
  1366306363,                             ! Version Timestamp
  {87292ac8-ea88-49e8-8cfc-d02096ffb232}; ! Name of Object 1

