
OS:Version,
  {f465bf3c-3d2e-44cf-a753-99e2a839b0a7}, ! Handle
  0.9.3;                                  ! Version Identifier

OS:SizingPeriod:DesignDay,
  {a5f156b4-acf9-4718-870c-92a31a70c1c7}, ! Handle
  Gunnison Co   Awos Ann Clg 2% Condns DP=>MDB, ! Name
  15.4,                                   ! Maximum Dry-Bulb Temperature {C}
  17.9,                                   ! Daily Dry-Bulb Temperature Range {deltaC}
  9,                                      ! Humidity Indicating Conditions at Maximum Dry-Bulb {BasedOnField A3}
  76206,                                  ! Barometric Pressure {Pa}
  4.4,                                    ! Wind Speed {m/s}
  250,                                    ! Wind Direction {deg}
  0,                                      ! Sky Clearness
  0,                                      ! Rain Indicator
  0,                                      ! Snow Indicator
  21,                                     ! Day of Month
  7,                                      ! Month
  SummerDesignDay,                        ! Day Type
  0,                                      ! Daylight Saving Time Indicator
  Dewpoint,                               ! Humidity Indicating Type
  ,                                       ! Humidity Indicating Day Schedule Name
  DefaultMultipliers,                     ! Dry-Bulb Temperature Range Modifier Type
  ,                                       ! Dry-Bulb Temperature Range Modifier Schedule Name
  ASHRAETau,                              ! Solar Model Indicator
  ,                                       ! Beam Solar Day Schedule Name
  ,                                       ! Diffuse Solar Day Schedule Name
  0.384,                                  ! ASHRAE Taub {dimensionless}
  2.179;                                  ! ASHRAE Taud {dimensionless}

OS:ComponentData,
  {a40ed3f5-6d1c-468c-ae1a-fe8d99d86a0c}, ! Handle
  Component Data 1,                       ! Name
  {ebdd1be6-43e8-4a64-ae47-c969a5ab3a84}, ! UUID
  {6655506d-cf6c-499d-8311-4713628e8571}, ! Version UUID
  1366306709,                             ! Creation Timestamp
  1366306709,                             ! Version Timestamp
  {a5f156b4-acf9-4718-870c-92a31a70c1c7}; ! Name of Object 1

