
OS:Version,
  {09cd170e-a0d1-4d7d-b8e8-37a262eef943}, ! Handle
  0.9.3;                                  ! Version Identifier

OS:SizingPeriod:DesignDay,
  {e522a493-be14-4753-b4c8-5c3450372c1e}, ! Handle
  Binghamton Edwin A Link Field Ann Clg .4% Condns DB=>MWB, ! Name
  29.7,                                   ! Maximum Dry-Bulb Temperature {C}
  9.7,                                    ! Daily Dry-Bulb Temperature Range {deltaC}
  21.1,                                   ! Humidity Indicating Conditions at Maximum Dry-Bulb {BasedOnField A3}
  95598,                                  ! Barometric Pressure {Pa}
  4.6,                                    ! Wind Speed {m/s}
  240,                                    ! Wind Direction {deg}
  0,                                      ! Sky Clearness
  0,                                      ! Rain Indicator
  0,                                      ! Snow Indicator
  21,                                     ! Day of Month
  7,                                      ! Month
  SummerDesignDay,                        ! Day Type
  0,                                      ! Daylight Saving Time Indicator
  Wetbulb,                                ! Humidity Indicating Type
  ,                                       ! Humidity Indicating Day Schedule Name
  DefaultMultipliers,                     ! Dry-Bulb Temperature Range Modifier Type
  ,                                       ! Dry-Bulb Temperature Range Modifier Schedule Name
  ASHRAETau,                              ! Solar Model Indicator
  ,                                       ! Beam Solar Day Schedule Name
  ,                                       ! Diffuse Solar Day Schedule Name
  0.452,                                  ! ASHRAE Taub {dimensionless}
  2.004;                                  ! ASHRAE Taud {dimensionless}

OS:ComponentData,
  {96341018-40f7-4707-8aff-c83d9771a275}, ! Handle
  Component Data 1,                       ! Name
  {97f5d284-a796-4d1f-8198-98cefdea0ecc}, ! UUID
  {9a55f5fc-28cb-4450-b588-f727e4f762e9}, ! Version UUID
  1366309593,                             ! Creation Timestamp
  1366309593,                             ! Version Timestamp
  {e522a493-be14-4753-b4c8-5c3450372c1e}; ! Name of Object 1

