
OS:Version,
  {3897632e-b7b5-412b-b70f-126a112bb6de}, ! Handle
  0.9.3;                                  ! Version Identifier

OS:SizingPeriod:DesignDay,
  {c88e0d74-4808-44aa-8fff-79a624c5dc47}, ! Handle
  Jacksonville Nas Ann Clg 2% Condns DB=>MWB, ! Name
  33,                                     ! Maximum Dry-Bulb Temperature {C}
  9.4,                                    ! Daily Dry-Bulb Temperature Range {deltaC}
  24.5,                                   ! Humidity Indicating Conditions at Maximum Dry-Bulb {BasedOnField A3}
  101217,                                 ! Barometric Pressure {Pa}
  3.2,                                    ! Wind Speed {m/s}
  260,                                    ! Wind Direction {deg}
  0,                                      ! Sky Clearness
  0,                                      ! Rain Indicator
  0,                                      ! Snow Indicator
  21,                                     ! Day of Month
  7,                                      ! Month
  SummerDesignDay,                        ! Day Type
  0,                                      ! Daylight Saving Time Indicator
  Wetbulb,                                ! Humidity Indicating Type
  ,                                       ! Humidity Indicating Day Schedule Name
  DefaultMultipliers,                     ! Dry-Bulb Temperature Range Modifier Type
  ,                                       ! Dry-Bulb Temperature Range Modifier Schedule Name
  ASHRAETau,                              ! Solar Model Indicator
  ,                                       ! Beam Solar Day Schedule Name
  ,                                       ! Diffuse Solar Day Schedule Name
  0.538,                                  ! ASHRAE Taub {dimensionless}
  1.868;                                  ! ASHRAE Taud {dimensionless}

OS:ComponentData,
  {783aab18-656b-40c9-b39e-13a3e73d44b3}, ! Handle
  Component Data 1,                       ! Name
  {11e93f4f-8c27-44dd-9183-f72a28a48dbc}, ! UUID
  {cf638535-8dda-4f64-9435-13f52543d20e}, ! Version UUID
  1366306826,                             ! Creation Timestamp
  1366306826,                             ! Version Timestamp
  {c88e0d74-4808-44aa-8fff-79a624c5dc47}; ! Name of Object 1

