
OS:Version,
  {e2fc29e1-a847-4b11-bc26-9397c32f3ca8}, ! Handle
  0.9.3;                                  ! Version Identifier

OS:SizingPeriod:DesignDay,
  {4eb7a3a9-be62-4638-8d1b-b77622e8c985}, ! Handle
  Brownsville Ann Hum_n 99% Condns DP=>MCDB, ! Name
  9.4,                                    ! Maximum Dry-Bulb Temperature {C}
  0,                                      ! Daily Dry-Bulb Temperature Range {deltaC}
  -1.3,                                   ! Humidity Indicating Conditions at Maximum Dry-Bulb {BasedOnField A3}
  101253,                                 ! Barometric Pressure {Pa}
  5.4,                                    ! Wind Speed {m/s}
  330,                                    ! Wind Direction {deg}
  0,                                      ! Sky Clearness
  0,                                      ! Rain Indicator
  0,                                      ! Snow Indicator
  21,                                     ! Day of Month
  1,                                      ! Month
  WinterDesignDay,                        ! Day Type
  0,                                      ! Daylight Saving Time Indicator
  Dewpoint,                               ! Humidity Indicating Type
  ,                                       ! Humidity Indicating Day Schedule Name
  DefaultMultipliers,                     ! Dry-Bulb Temperature Range Modifier Type
  ,                                       ! Dry-Bulb Temperature Range Modifier Schedule Name
  ASHRAEClearSky;                         ! Solar Model Indicator

OS:ComponentData,
  {f7ac9caf-4944-4efa-8c5d-df4f9562828c}, ! Handle
  Component Data 1,                       ! Name
  {28550aa8-b3e1-416c-8483-3fac50552aab}, ! UUID
  {e44f362a-3c49-487b-aa0b-6831e1c812b4}, ! Version UUID
  1366310601,                             ! Creation Timestamp
  1366310601,                             ! Version Timestamp
  {4eb7a3a9-be62-4638-8d1b-b77622e8c985}; ! Name of Object 1

