
OS:Version,
  {fe2d069d-1f7b-4541-9e0f-8ad7a4ab4e83}, ! Handle
  0.9.3;                                  ! Version Identifier

OS:SizingPeriod:DesignDay,
  {7a3174c0-c591-499e-ab2d-97adebfc1732}, ! Handle
  Fort Sill Post Field Af Ann Clg 1% Condns DB=>MWB, ! Name
  36.8,                                   ! Maximum Dry-Bulb Temperature {C}
  11.8,                                   ! Daily Dry-Bulb Temperature Range {deltaC}
  22.8,                                   ! Humidity Indicating Conditions at Maximum Dry-Bulb {BasedOnField A3}
  96970,                                  ! Barometric Pressure {Pa}
  4.9,                                    ! Wind Speed {m/s}
  170,                                    ! Wind Direction {deg}
  0,                                      ! Sky Clearness
  0,                                      ! Rain Indicator
  0,                                      ! Snow Indicator
  21,                                     ! Day of Month
  7,                                      ! Month
  SummerDesignDay,                        ! Day Type
  0,                                      ! Daylight Saving Time Indicator
  Wetbulb,                                ! Humidity Indicating Type
  ,                                       ! Humidity Indicating Day Schedule Name
  DefaultMultipliers,                     ! Dry-Bulb Temperature Range Modifier Type
  ,                                       ! Dry-Bulb Temperature Range Modifier Schedule Name
  ASHRAETau,                              ! Solar Model Indicator
  ,                                       ! Beam Solar Day Schedule Name
  ,                                       ! Diffuse Solar Day Schedule Name
  0.432,                                  ! ASHRAE Taub {dimensionless}
  2.178;                                  ! ASHRAE Taud {dimensionless}

OS:ComponentData,
  {3b38ecdd-18d9-4e91-9a6d-7f1102915db8}, ! Handle
  Component Data 1,                       ! Name
  {08dbb5aa-328c-4596-b7ff-d8447248ac48}, ! UUID
  {6fd3b961-4c3b-4abb-a360-89ca8b53a71f}, ! Version UUID
  1366309889,                             ! Creation Timestamp
  1366309889,                             ! Version Timestamp
  {7a3174c0-c591-499e-ab2d-97adebfc1732}; ! Name of Object 1

