
OS:Version,
  {08f8a602-37c6-4fbc-b0b8-ab3946552bd3}, ! Handle
  0.9.3;                                  ! Version Identifier

OS:SizingPeriod:DesignDay,
  {5a4259ca-6045-4fee-9923-3a5acb1da421}, ! Handle
  AKRON Ann Hum_n 99% Condns DP=>MCDB,    ! Name
  -12.8,                                  ! Maximum Dry-Bulb Temperature {C}
  0,                                      ! Daily Dry-Bulb Temperature Range {deltaC}
  -17.9,                                  ! Humidity Indicating Conditions at Maximum Dry-Bulb {BasedOnField A3}
  96877,                                  ! Barometric Pressure {Pa}
  4.6,                                    ! Wind Speed {m/s}
  240,                                    ! Wind Direction {deg}
  0,                                      ! Sky Clearness
  0,                                      ! Rain Indicator
  0,                                      ! Snow Indicator
  21,                                     ! Day of Month
  1,                                      ! Month
  WinterDesignDay,                        ! Day Type
  0,                                      ! Daylight Saving Time Indicator
  Dewpoint,                               ! Humidity Indicating Type
  ,                                       ! Humidity Indicating Day Schedule Name
  DefaultMultipliers,                     ! Dry-Bulb Temperature Range Modifier Type
  ,                                       ! Dry-Bulb Temperature Range Modifier Schedule Name
  ASHRAEClearSky;                         ! Solar Model Indicator

OS:ComponentData,
  {82bf5753-aeb5-400d-a1a2-1715e0a6f61e}, ! Handle
  Component Data 1,                       ! Name
  {35e86b99-89b3-4db9-a96c-fc0e8183c73d}, ! UUID
  {9648eaad-b857-443e-a029-de8b9654b54e}, ! Version UUID
  1366309760,                             ! Creation Timestamp
  1366309760,                             ! Version Timestamp
  {5a4259ca-6045-4fee-9923-3a5acb1da421}; ! Name of Object 1

