
OS:Version,
  {468ca4bd-59e9-404e-a0c3-58c54c1a527b}, ! Handle
  0.9.3;                                  ! Version Identifier

OS:SizingPeriod:DesignDay,
  {c76a74d8-2a24-4cb4-940a-7f9339e4b7d1}, ! Handle
  Bettles Field Ann Clg .4% Condns DB=>MWB, ! Name
  26.3,                                   ! Maximum Dry-Bulb Temperature {C}
  10.6,                                   ! Daily Dry-Bulb Temperature Range {deltaC}
  15.6,                                   ! Humidity Indicating Conditions at Maximum Dry-Bulb {BasedOnField A3}
  98992,                                  ! Barometric Pressure {Pa}
  3.3,                                    ! Wind Speed {m/s}
  220,                                    ! Wind Direction {deg}
  0,                                      ! Sky Clearness
  0,                                      ! Rain Indicator
  0,                                      ! Snow Indicator
  21,                                     ! Day of Month
  7,                                      ! Month
  SummerDesignDay,                        ! Day Type
  0,                                      ! Daylight Saving Time Indicator
  Wetbulb,                                ! Humidity Indicating Type
  ,                                       ! Humidity Indicating Day Schedule Name
  DefaultMultipliers,                     ! Dry-Bulb Temperature Range Modifier Type
  ,                                       ! Dry-Bulb Temperature Range Modifier Schedule Name
  ASHRAETau,                              ! Solar Model Indicator
  ,                                       ! Beam Solar Day Schedule Name
  ,                                       ! Diffuse Solar Day Schedule Name
  0.389,                                  ! ASHRAE Taub {dimensionless}
  2.131;                                  ! ASHRAE Taud {dimensionless}

OS:ComponentData,
  {8234835b-958c-408f-8b09-8e28f648b8c3}, ! Handle
  Component Data 1,                       ! Name
  {e74fc1e6-76f8-4dfb-8452-c0a59975b931}, ! UUID
  {d8211327-627b-4624-befd-a34d0f0a0384}, ! Version UUID
  1366304767,                             ! Creation Timestamp
  1366304767,                             ! Version Timestamp
  {c76a74d8-2a24-4cb4-940a-7f9339e4b7d1}; ! Name of Object 1

