
OS:Version,
  {1985aaae-67f8-488f-bd7c-cfa2082a7c85}, ! Handle
  0.9.3;                                  ! Version Identifier

OS:SizingPeriod:DesignDay,
  {8a2f0739-348f-4b9d-bff3-5795315d4e52}, ! Handle
  London Corbin Ap Ann Clg 1% Condns Enth=>MDB, ! Name
  29.2,                                   ! Maximum Dry-Bulb Temperature {C}
  10.4,                                   ! Daily Dry-Bulb Temperature Range {deltaC}
  74500,                                  ! Humidity Indicating Conditions at Maximum Dry-Bulb {BasedOnField A3}
  97051,                                  ! Barometric Pressure {Pa}
  3.2,                                    ! Wind Speed {m/s}
  250,                                    ! Wind Direction {deg}
  0,                                      ! Sky Clearness
  0,                                      ! Rain Indicator
  0,                                      ! Snow Indicator
  21,                                     ! Day of Month
  7,                                      ! Month
  SummerDesignDay,                        ! Day Type
  0,                                      ! Daylight Saving Time Indicator
  Enthalpy,                               ! Humidity Indicating Type
  ,                                       ! Humidity Indicating Day Schedule Name
  DefaultMultipliers,                     ! Dry-Bulb Temperature Range Modifier Type
  ,                                       ! Dry-Bulb Temperature Range Modifier Schedule Name
  ASHRAETau,                              ! Solar Model Indicator
  ,                                       ! Beam Solar Day Schedule Name
  ,                                       ! Diffuse Solar Day Schedule Name
  0.51,                                   ! ASHRAE Taub {dimensionless}
  1.864;                                  ! ASHRAE Taud {dimensionless}

OS:ComponentData,
  {c4d88ef2-d18b-4739-a2e5-6a1c55920a93}, ! Handle
  Component Data 1,                       ! Name
  {3a315b37-1ffe-4369-b4f6-dd4b47f316f3}, ! UUID
  {9a778795-f3c1-4e4d-9f1c-6caa7ff382fc}, ! Version UUID
  1366307661,                             ! Creation Timestamp
  1366307661,                             ! Version Timestamp
  {8a2f0739-348f-4b9d-bff3-5795315d4e52}; ! Name of Object 1

