
OS:Version,
  {1c5e5d9b-db2a-4324-808a-f70b0ffdfed4}, ! Handle
  0.9.3;                                  ! Version Identifier

OS:SizingPeriod:DesignDay,
  {08c717d2-b3f4-4bad-8f17-606bf557d6ad}, ! Handle
  Fort Collins  Awos Ann Htg Wind 99.6% Condns WS=>MCDB, ! Name
  6.5,                                    ! Maximum Dry-Bulb Temperature {C}
  0,                                      ! Daily Dry-Bulb Temperature Range {deltaC}
  6.5,                                    ! Humidity Indicating Conditions at Maximum Dry-Bulb {BasedOnField A3}
  84255,                                  ! Barometric Pressure {Pa}
  12.8,                                   ! Wind Speed {m/s}
  70,                                     ! Wind Direction {deg}
  0,                                      ! Sky Clearness
  0,                                      ! Rain Indicator
  0,                                      ! Snow Indicator
  21,                                     ! Day of Month
  1,                                      ! Month
  WinterDesignDay,                        ! Day Type
  0,                                      ! Daylight Saving Time Indicator
  Wetbulb,                                ! Humidity Indicating Type
  ,                                       ! Humidity Indicating Day Schedule Name
  DefaultMultipliers,                     ! Dry-Bulb Temperature Range Modifier Type
  ,                                       ! Dry-Bulb Temperature Range Modifier Schedule Name
  ASHRAEClearSky;                         ! Solar Model Indicator

OS:ComponentData,
  {ecea7008-3619-4a61-8b51-d6053fff5324}, ! Handle
  Component Data 1,                       ! Name
  {1e9bdf55-f695-42ca-b643-6439242352e7}, ! UUID
  {b2a1e8be-0de0-4560-93d3-9a644f54ca53}, ! Version UUID
  1366306690,                             ! Creation Timestamp
  1366306690,                             ! Version Timestamp
  {08c717d2-b3f4-4bad-8f17-606bf557d6ad}; ! Name of Object 1

