
OS:Version,
  {09f3e7a8-3776-4be7-b6b4-02bcbac91cd2}, ! Handle
  0.9.3;                                  ! Version Identifier

OS:SizingPeriod:DesignDay,
  {4397b218-ee40-49d5-9012-25de5a6a89a9}, ! Handle
  Butte Bert Mooney Arpt Ann Clg .4% Condns WB=>MDB, ! Name
  26.1,                                   ! Maximum Dry-Bulb Temperature {C}
  18.3,                                   ! Daily Dry-Bulb Temperature Range {deltaC}
  15.9,                                   ! Humidity Indicating Conditions at Maximum Dry-Bulb {BasedOnField A3}
  82613,                                  ! Barometric Pressure {Pa}
  5,                                      ! Wind Speed {m/s}
  0,                                      ! Wind Direction {deg}
  0,                                      ! Sky Clearness
  0,                                      ! Rain Indicator
  0,                                      ! Snow Indicator
  21,                                     ! Day of Month
  7,                                      ! Month
  SummerDesignDay,                        ! Day Type
  0,                                      ! Daylight Saving Time Indicator
  Wetbulb,                                ! Humidity Indicating Type
  ,                                       ! Humidity Indicating Day Schedule Name
  DefaultMultipliers,                     ! Dry-Bulb Temperature Range Modifier Type
  ,                                       ! Dry-Bulb Temperature Range Modifier Schedule Name
  ASHRAETau,                              ! Solar Model Indicator
  ,                                       ! Beam Solar Day Schedule Name
  ,                                       ! Diffuse Solar Day Schedule Name
  0.352,                                  ! ASHRAE Taub {dimensionless}
  2.312;                                  ! ASHRAE Taud {dimensionless}

OS:ComponentData,
  {2a7c0bc2-02c8-4e4d-9691-546953bd410e}, ! Handle
  Component Data 1,                       ! Name
  {32bb83ff-1671-4e21-b07f-d5faa7b56db5}, ! UUID
  {069b6552-7aef-4e90-a94f-dc4f75e3e8b3}, ! Version UUID
  1366308725,                             ! Creation Timestamp
  1366308725,                             ! Version Timestamp
  {4397b218-ee40-49d5-9012-25de5a6a89a9}; ! Name of Object 1

