
OS:Version,
  {e6273189-f409-4dcc-82f6-b04838dfdc31}, ! Handle
  0.9.3;                                  ! Version Identifier

OS:SizingPeriod:DesignDay,
  {48ecfde3-1cfc-4cb1-a6d3-8ae1a89e77aa}, ! Handle
  Knoxville Ann Clg .4% Condns DP=>MDB,   ! Name
  27.6,                                   ! Maximum Dry-Bulb Temperature {C}
  10.4,                                   ! Daily Dry-Bulb Temperature Range {deltaC}
  23.3,                                   ! Humidity Indicating Conditions at Maximum Dry-Bulb {BasedOnField A3}
  97784,                                  ! Barometric Pressure {Pa}
  3.2,                                    ! Wind Speed {m/s}
  250,                                    ! Wind Direction {deg}
  0,                                      ! Sky Clearness
  0,                                      ! Rain Indicator
  0,                                      ! Snow Indicator
  21,                                     ! Day of Month
  7,                                      ! Month
  SummerDesignDay,                        ! Day Type
  0,                                      ! Daylight Saving Time Indicator
  Dewpoint,                               ! Humidity Indicating Type
  ,                                       ! Humidity Indicating Day Schedule Name
  DefaultMultipliers,                     ! Dry-Bulb Temperature Range Modifier Type
  ,                                       ! Dry-Bulb Temperature Range Modifier Schedule Name
  ASHRAETau,                              ! Solar Model Indicator
  ,                                       ! Beam Solar Day Schedule Name
  ,                                       ! Diffuse Solar Day Schedule Name
  0.547,                                  ! ASHRAE Taub {dimensionless}
  1.786;                                  ! ASHRAE Taud {dimensionless}

OS:ComponentData,
  {896c9ff8-2cdd-4f04-b77c-f0766cffb13e}, ! Handle
  Component Data 1,                       ! Name
  {f45dfc02-8887-4eff-8589-a7d38de559eb}, ! UUID
  {228c5b03-43ba-4290-816f-ada2377d3125}, ! Version UUID
  1366310509,                             ! Creation Timestamp
  1366310509,                             ! Version Timestamp
  {48ecfde3-1cfc-4cb1-a6d3-8ae1a89e77aa}; ! Name of Object 1

