
OS:Version,
  {b209258e-5adc-42b9-b5d0-e660fb1a6dec}, ! Handle
  0.9.3;                                  ! Version Identifier

OS:SizingPeriod:DesignDay,
  {d281398c-a6c0-41f3-8840-ab30f656b161}, ! Handle
  Dothan Municipal Ap Ann Clg .4% Condns DP=>MDB, ! Name
  28.5,                                   ! Maximum Dry-Bulb Temperature {C}
  9.7,                                    ! Daily Dry-Bulb Temperature Range {deltaC}
  25.3,                                   ! Humidity Indicating Conditions at Maximum Dry-Bulb {BasedOnField A3}
  100153,                                 ! Barometric Pressure {Pa}
  3.7,                                    ! Wind Speed {m/s}
  300,                                    ! Wind Direction {deg}
  0,                                      ! Sky Clearness
  0,                                      ! Rain Indicator
  0,                                      ! Snow Indicator
  21,                                     ! Day of Month
  7,                                      ! Month
  SummerDesignDay,                        ! Day Type
  0,                                      ! Daylight Saving Time Indicator
  Dewpoint,                               ! Humidity Indicating Type
  ,                                       ! Humidity Indicating Day Schedule Name
  DefaultMultipliers,                     ! Dry-Bulb Temperature Range Modifier Type
  ,                                       ! Dry-Bulb Temperature Range Modifier Schedule Name
  ASHRAETau,                              ! Solar Model Indicator
  ,                                       ! Beam Solar Day Schedule Name
  ,                                       ! Diffuse Solar Day Schedule Name
  0.544,                                  ! ASHRAE Taub {dimensionless}
  1.83;                                   ! ASHRAE Taud {dimensionless}

OS:ComponentData,
  {f4fd951c-65d4-4caa-ad93-8b9df484846c}, ! Handle
  Component Data 1,                       ! Name
  {44bf68cf-12b2-4424-a10e-52504f7391d1}, ! UUID
  {fe38aa4f-60b6-4e98-9714-303609dd7633}, ! Version UUID
  1366305652,                             ! Creation Timestamp
  1366305652,                             ! Version Timestamp
  {d281398c-a6c0-41f3-8840-ab30f656b161}; ! Name of Object 1

