
OS:Version,
  {62753edd-6eab-45a6-ae54-0ee30e2f35fc}, ! Handle
  0.9.3;                                  ! Version Identifier

OS:SizingPeriod:DesignDay,
  {51fc9b5a-adba-4bdd-b0eb-21d417bfe030}, ! Handle
  Grand Canyon Natl P Ann Hum_n 99% Condns DP=>MCDB, ! Name
  -7.1,                                   ! Maximum Dry-Bulb Temperature {C}
  0,                                      ! Daily Dry-Bulb Temperature Range {deltaC}
  -21,                                    ! Humidity Indicating Conditions at Maximum Dry-Bulb {BasedOnField A3}
  78856,                                  ! Barometric Pressure {Pa}
  0.8,                                    ! Wind Speed {m/s}
  40,                                     ! Wind Direction {deg}
  0,                                      ! Sky Clearness
  0,                                      ! Rain Indicator
  0,                                      ! Snow Indicator
  21,                                     ! Day of Month
  12,                                     ! Month
  WinterDesignDay,                        ! Day Type
  0,                                      ! Daylight Saving Time Indicator
  Dewpoint,                               ! Humidity Indicating Type
  ,                                       ! Humidity Indicating Day Schedule Name
  DefaultMultipliers,                     ! Dry-Bulb Temperature Range Modifier Type
  ,                                       ! Dry-Bulb Temperature Range Modifier Schedule Name
  ASHRAEClearSky;                         ! Solar Model Indicator

OS:ComponentData,
  {30af33ca-b3b5-4bde-8ff1-8d0bfb13d741}, ! Handle
  Component Data 1,                       ! Name
  {f594f6b1-5568-4bad-aebc-5162903717e8}, ! UUID
  {114ef0b9-0000-402c-aae8-ff8a5a33801f}, ! Version UUID
  1366306278,                             ! Creation Timestamp
  1366306278,                             ! Version Timestamp
  {51fc9b5a-adba-4bdd-b0eb-21d417bfe030}; ! Name of Object 1

