
OS:Version,
  {d696c38f-82af-41db-ace2-e843b3e641a4}, ! Handle
  0.9.3;                                  ! Version Identifier

OS:SizingPeriod:DesignDay,
  {10ddd0da-bd80-415c-bb2b-54679a246c8b}, ! Handle
  Kodiak/State USCG Base Ann Clg 1% Condns DB=>MWB, ! Name
  18.4,                                   ! Maximum Dry-Bulb Temperature {C}
  6.4,                                    ! Daily Dry-Bulb Temperature Range {deltaC}
  13.3,                                   ! Humidity Indicating Conditions at Maximum Dry-Bulb {BasedOnField A3}
  100917,                                 ! Barometric Pressure {Pa}
  5.2,                                    ! Wind Speed {m/s}
  310,                                    ! Wind Direction {deg}
  0,                                      ! Sky Clearness
  0,                                      ! Rain Indicator
  0,                                      ! Snow Indicator
  21,                                     ! Day of Month
  8,                                      ! Month
  SummerDesignDay,                        ! Day Type
  0,                                      ! Daylight Saving Time Indicator
  Wetbulb,                                ! Humidity Indicating Type
  ,                                       ! Humidity Indicating Day Schedule Name
  DefaultMultipliers,                     ! Dry-Bulb Temperature Range Modifier Type
  ,                                       ! Dry-Bulb Temperature Range Modifier Schedule Name
  ASHRAETau,                              ! Solar Model Indicator
  ,                                       ! Beam Solar Day Schedule Name
  ,                                       ! Diffuse Solar Day Schedule Name
  0.36,                                   ! ASHRAE Taub {dimensionless}
  2.361;                                  ! ASHRAE Taud {dimensionless}

OS:ComponentData,
  {64230f32-f463-479e-b29b-00b238880d5a}, ! Handle
  Component Data 1,                       ! Name
  {469ec0ea-f5cc-4ab4-9826-ff80cff3e6b1}, ! UUID
  {80f914ba-372f-48eb-9d03-f03fbf48ead9}, ! Version UUID
  1366305374,                             ! Creation Timestamp
  1366305374,                             ! Version Timestamp
  {10ddd0da-bd80-415c-bb2b-54679a246c8b}; ! Name of Object 1

