
OS:Version,
  {aa792141-aab1-4562-92b8-a3e16d828927}, ! Handle
  0.9.3;                                  ! Version Identifier

OS:SizingPeriod:DesignDay,
  {7dd3141d-bee7-47c8-a896-e82d839f4002}, ! Handle
  Findlay Airport Ann Clg 2% Condns DB=>MWB, ! Name
  29.3,                                   ! Maximum Dry-Bulb Temperature {C}
  10.6,                                   ! Daily Dry-Bulb Temperature Range {deltaC}
  21.6,                                   ! Humidity Indicating Conditions at Maximum Dry-Bulb {BasedOnField A3}
  98428,                                  ! Barometric Pressure {Pa}
  4.7,                                    ! Wind Speed {m/s}
  230,                                    ! Wind Direction {deg}
  0,                                      ! Sky Clearness
  0,                                      ! Rain Indicator
  0,                                      ! Snow Indicator
  21,                                     ! Day of Month
  7,                                      ! Month
  SummerDesignDay,                        ! Day Type
  0,                                      ! Daylight Saving Time Indicator
  Wetbulb,                                ! Humidity Indicating Type
  ,                                       ! Humidity Indicating Day Schedule Name
  DefaultMultipliers,                     ! Dry-Bulb Temperature Range Modifier Type
  ,                                       ! Dry-Bulb Temperature Range Modifier Schedule Name
  ASHRAETau,                              ! Solar Model Indicator
  ,                                       ! Beam Solar Day Schedule Name
  ,                                       ! Diffuse Solar Day Schedule Name
  0.46,                                   ! ASHRAE Taub {dimensionless}
  2.024;                                  ! ASHRAE Taud {dimensionless}

OS:ComponentData,
  {260c1145-febc-4437-80de-ab89e2d65b6a}, ! Handle
  Component Data 1,                       ! Name
  {9b493608-f193-4ae0-bbcc-e5b29ab1f33e}, ! UUID
  {aec6b1f2-a684-4b94-991b-49ed41ef5b5a}, ! Version UUID
  1366309826,                             ! Creation Timestamp
  1366309826,                             ! Version Timestamp
  {7dd3141d-bee7-47c8-a896-e82d839f4002}; ! Name of Object 1

