
OS:Version,
  {1f30e03f-0edf-4391-87b1-f20141dc723c}, ! Handle
  0.9.3;                                  ! Version Identifier

OS:SizingPeriod:DesignDay,
  {745fdad3-b521-454c-94c7-648af7f9d33d}, ! Handle
  Jefferson City Mem Ann Clg 2% Condns DP=>MDB, ! Name
  27.5,                                   ! Maximum Dry-Bulb Temperature {C}
  10.5,                                   ! Daily Dry-Bulb Temperature Range {deltaC}
  22.9,                                   ! Humidity Indicating Conditions at Maximum Dry-Bulb {BasedOnField A3}
  99335,                                  ! Barometric Pressure {Pa}
  3.7,                                    ! Wind Speed {m/s}
  220,                                    ! Wind Direction {deg}
  0,                                      ! Sky Clearness
  0,                                      ! Rain Indicator
  0,                                      ! Snow Indicator
  21,                                     ! Day of Month
  7,                                      ! Month
  SummerDesignDay,                        ! Day Type
  0,                                      ! Daylight Saving Time Indicator
  Dewpoint,                               ! Humidity Indicating Type
  ,                                       ! Humidity Indicating Day Schedule Name
  DefaultMultipliers,                     ! Dry-Bulb Temperature Range Modifier Type
  ,                                       ! Dry-Bulb Temperature Range Modifier Schedule Name
  ASHRAETau,                              ! Solar Model Indicator
  ,                                       ! Beam Solar Day Schedule Name
  ,                                       ! Diffuse Solar Day Schedule Name
  0.459,                                  ! ASHRAE Taub {dimensionless}
  2.071;                                  ! ASHRAE Taud {dimensionless}

OS:ComponentData,
  {7da8c66b-78eb-4e8f-8436-88c3112a2d15}, ! Handle
  Component Data 1,                       ! Name
  {a747ffaf-69f5-4ee7-87ce-d0c1ce544572}, ! UUID
  {3cae0a7c-ebcb-4424-992d-4361aae343a3}, ! Version UUID
  1366308503,                             ! Creation Timestamp
  1366308503,                             ! Version Timestamp
  {745fdad3-b521-454c-94c7-648af7f9d33d}; ! Name of Object 1

