
OS:Version,
  {9aa551fe-f5e7-4ec4-9362-eedad3e8d4f4}, ! Handle
  0.9.3;                                  ! Version Identifier

OS:SizingPeriod:DesignDay,
  {7be88f3b-92ab-47b3-8deb-82d8922a4a7a}, ! Handle
  Elko Municipal Arpt Ann Clg 2% Condns WB=>MDB, ! Name
  28.7,                                   ! Maximum Dry-Bulb Temperature {C}
  21.8,                                   ! Daily Dry-Bulb Temperature Range {deltaC}
  15.6,                                   ! Humidity Indicating Conditions at Maximum Dry-Bulb {BasedOnField A3}
  84059,                                  ! Barometric Pressure {Pa}
  4.1,                                    ! Wind Speed {m/s}
  240,                                    ! Wind Direction {deg}
  0,                                      ! Sky Clearness
  0,                                      ! Rain Indicator
  0,                                      ! Snow Indicator
  21,                                     ! Day of Month
  7,                                      ! Month
  SummerDesignDay,                        ! Day Type
  0,                                      ! Daylight Saving Time Indicator
  Wetbulb,                                ! Humidity Indicating Type
  ,                                       ! Humidity Indicating Day Schedule Name
  DefaultMultipliers,                     ! Dry-Bulb Temperature Range Modifier Type
  ,                                       ! Dry-Bulb Temperature Range Modifier Schedule Name
  ASHRAETau,                              ! Solar Model Indicator
  ,                                       ! Beam Solar Day Schedule Name
  ,                                       ! Diffuse Solar Day Schedule Name
  0.446,                                  ! ASHRAE Taub {dimensionless}
  1.888;                                  ! ASHRAE Taud {dimensionless}

OS:ComponentData,
  {55fd6d71-2dd7-456a-9827-6f65df497397}, ! Handle
  Component Data 1,                       ! Name
  {d143954b-856c-42bc-90a1-6b9a6a9b95a2}, ! UUID
  {99273f05-9b40-4718-b5d0-186bc5ee28c8}, ! Version UUID
  1366309467,                             ! Creation Timestamp
  1366309467,                             ! Version Timestamp
  {7be88f3b-92ab-47b3-8deb-82d8922a4a7a}; ! Name of Object 1

