
OS:Version,
  {abc432bc-19e6-4603-abca-27ce67824cf8}, ! Handle
  0.9.3;                                  ! Version Identifier

OS:SizingPeriod:DesignDay,
  {cf790ed5-37a4-4d43-8a57-2ddbf0c4be61}, ! Handle
  Hutchinson  Awos Ann Hum_n 99.6% Condns DP=>MCDB, ! Name
  -26.4,                                  ! Maximum Dry-Bulb Temperature {C}
  0,                                      ! Daily Dry-Bulb Temperature Range {deltaC}
  -30.9,                                  ! Humidity Indicating Conditions at Maximum Dry-Bulb {BasedOnField A3}
  97504,                                  ! Barometric Pressure {Pa}
  2.3,                                    ! Wind Speed {m/s}
  300,                                    ! Wind Direction {deg}
  0,                                      ! Sky Clearness
  0,                                      ! Rain Indicator
  0,                                      ! Snow Indicator
  21,                                     ! Day of Month
  1,                                      ! Month
  WinterDesignDay,                        ! Day Type
  0,                                      ! Daylight Saving Time Indicator
  Dewpoint,                               ! Humidity Indicating Type
  ,                                       ! Humidity Indicating Day Schedule Name
  DefaultMultipliers,                     ! Dry-Bulb Temperature Range Modifier Type
  ,                                       ! Dry-Bulb Temperature Range Modifier Schedule Name
  ASHRAEClearSky;                         ! Solar Model Indicator

OS:ComponentData,
  {ce77965b-d3d5-44bd-b62b-d13403c41c5c}, ! Handle
  Component Data 1,                       ! Name
  {545d4816-85c2-4660-bb73-7ca2c51e7ab8}, ! UUID
  {da9272dd-747c-4f10-a37a-c880e0eaf948}, ! Version UUID
  1366308259,                             ! Creation Timestamp
  1366308259,                             ! Version Timestamp
  {cf790ed5-37a4-4d43-8a57-2ddbf0c4be61}; ! Name of Object 1

