
OS:Version,
  {c4edc03f-dd61-4c77-8d41-8637c4300c70}, ! Handle
  0.9.3;                                  ! Version Identifier

OS:SizingPeriod:DesignDay,
  {30879528-3859-41c7-a9cd-4a493cf12549}, ! Handle
  Alexandria Municipal Ap Ann Clg 2% Condns Enth=>MDB, ! Name
  26.3,                                   ! Maximum Dry-Bulb Temperature {C}
  10.4,                                   ! Daily Dry-Bulb Temperature Range {deltaC}
  65800,                                  ! Humidity Indicating Conditions at Maximum Dry-Bulb {BasedOnField A3}
  96230,                                  ! Barometric Pressure {Pa}
  6.2,                                    ! Wind Speed {m/s}
  180,                                    ! Wind Direction {deg}
  0,                                      ! Sky Clearness
  0,                                      ! Rain Indicator
  0,                                      ! Snow Indicator
  21,                                     ! Day of Month
  7,                                      ! Month
  SummerDesignDay,                        ! Day Type
  0,                                      ! Daylight Saving Time Indicator
  Enthalpy,                               ! Humidity Indicating Type
  ,                                       ! Humidity Indicating Day Schedule Name
  DefaultMultipliers,                     ! Dry-Bulb Temperature Range Modifier Type
  ,                                       ! Dry-Bulb Temperature Range Modifier Schedule Name
  ASHRAETau,                              ! Solar Model Indicator
  ,                                       ! Beam Solar Day Schedule Name
  ,                                       ! Diffuse Solar Day Schedule Name
  0.39,                                   ! ASHRAE Taub {dimensionless}
  2.268;                                  ! ASHRAE Taud {dimensionless}

OS:ComponentData,
  {96de97f2-3c62-47bb-8173-76d985f32e1d}, ! Handle
  Component Data 1,                       ! Name
  {c6e386b6-4108-48d0-b2fc-885f59e29f88}, ! UUID
  {ef8a1cfa-b410-44e2-8902-37fd17fb6993}, ! Version UUID
  1366308146,                             ! Creation Timestamp
  1366308146,                             ! Version Timestamp
  {30879528-3859-41c7-a9cd-4a493cf12549}; ! Name of Object 1

