
OS:Version,
  {8ca7a92f-01de-4aa0-9f94-3f83eb198222}, ! Handle
  0.9.3;                                  ! Version Identifier

OS:SizingPeriod:DesignDay,
  {258a6c2c-14e7-44b1-89ee-3b9731132a04}, ! Handle
  International Falls Intl Ap Ann Hum_n 99% Condns DP=>MCDB, ! Name
  -28.8,                                  ! Maximum Dry-Bulb Temperature {C}
  0,                                      ! Daily Dry-Bulb Temperature Range {deltaC}
  -32.9,                                  ! Humidity Indicating Conditions at Maximum Dry-Bulb {BasedOnField A3}
  97086,                                  ! Barometric Pressure {Pa}
  2.4,                                    ! Wind Speed {m/s}
  210,                                    ! Wind Direction {deg}
  0,                                      ! Sky Clearness
  0,                                      ! Rain Indicator
  0,                                      ! Snow Indicator
  21,                                     ! Day of Month
  1,                                      ! Month
  WinterDesignDay,                        ! Day Type
  0,                                      ! Daylight Saving Time Indicator
  Dewpoint,                               ! Humidity Indicating Type
  ,                                       ! Humidity Indicating Day Schedule Name
  DefaultMultipliers,                     ! Dry-Bulb Temperature Range Modifier Type
  ,                                       ! Dry-Bulb Temperature Range Modifier Schedule Name
  ASHRAEClearSky;                         ! Solar Model Indicator

OS:ComponentData,
  {f2778929-8a41-488f-9d5b-cd4390922f71}, ! Handle
  Component Data 1,                       ! Name
  {f9c5d2d3-f8db-44fd-85f1-0e7909448914}, ! UUID
  {62189a1f-2c69-4b11-83b6-7f1134b5cf5c}, ! Version UUID
  1366308276,                             ! Creation Timestamp
  1366308276,                             ! Version Timestamp
  {258a6c2c-14e7-44b1-89ee-3b9731132a04}; ! Name of Object 1

