
OS:Version,
  {8ba9b128-9a84-4ff4-9cd6-e5d5387fd4de}, ! Handle
  0.9.3;                                  ! Version Identifier

OS:SizingPeriod:DesignDay,
  {970fc1b1-e14c-43bc-a106-efdebe360186}, ! Handle
  Carroll Ann Clg 2% Condns DB=>MWB,      ! Name
  31.3,                                   ! Maximum Dry-Bulb Temperature {C}
  11.4,                                   ! Daily Dry-Bulb Temperature Range {deltaC}
  23.9,                                   ! Humidity Indicating Conditions at Maximum Dry-Bulb {BasedOnField A3}
  96900,                                  ! Barometric Pressure {Pa}
  5.7,                                    ! Wind Speed {m/s}
  190,                                    ! Wind Direction {deg}
  0,                                      ! Sky Clearness
  0,                                      ! Rain Indicator
  0,                                      ! Snow Indicator
  21,                                     ! Day of Month
  7,                                      ! Month
  SummerDesignDay,                        ! Day Type
  0,                                      ! Daylight Saving Time Indicator
  Wetbulb,                                ! Humidity Indicating Type
  ,                                       ! Humidity Indicating Day Schedule Name
  DefaultMultipliers,                     ! Dry-Bulb Temperature Range Modifier Type
  ,                                       ! Dry-Bulb Temperature Range Modifier Schedule Name
  ASHRAETau,                              ! Solar Model Indicator
  ,                                       ! Beam Solar Day Schedule Name
  ,                                       ! Diffuse Solar Day Schedule Name
  0.409,                                  ! ASHRAE Taub {dimensionless}
  2.221;                                  ! ASHRAE Taud {dimensionless}

OS:ComponentData,
  {c1b057c7-7c15-4c0b-a226-4a8776d097b7}, ! Handle
  Component Data 1,                       ! Name
  {f24d1559-73e6-4f3b-b29d-08cdbc073253}, ! UUID
  {f565fbb3-d95f-4ea5-85e1-a5153018b01b}, ! Version UUID
  1366307146,                             ! Creation Timestamp
  1366307146,                             ! Version Timestamp
  {970fc1b1-e14c-43bc-a106-efdebe360186}; ! Name of Object 1

