
OS:Version,
  {207f3dce-6a98-42b2-ab42-ef79d61c59d4}, ! Handle
  0.9.3;                                  ! Version Identifier

OS:SizingPeriod:DesignDay,
  {69c858e2-bb3b-4b24-9b9a-81a5896a7636}, ! Handle
  CORPUS_CHRISTI Ann Clg 1% Condns Enth=>MDB, ! Name
  31.4,                                   ! Maximum Dry-Bulb Temperature {C}
  10.1,                                   ! Daily Dry-Bulb Temperature Range {deltaC}
  83800,                                  ! Humidity Indicating Conditions at Maximum Dry-Bulb {BasedOnField A3}
  101169,                                 ! Barometric Pressure {Pa}
  6.6,                                    ! Wind Speed {m/s}
  140,                                    ! Wind Direction {deg}
  0,                                      ! Sky Clearness
  0,                                      ! Rain Indicator
  0,                                      ! Snow Indicator
  21,                                     ! Day of Month
  8,                                      ! Month
  SummerDesignDay,                        ! Day Type
  0,                                      ! Daylight Saving Time Indicator
  Enthalpy,                               ! Humidity Indicating Type
  ,                                       ! Humidity Indicating Day Schedule Name
  DefaultMultipliers,                     ! Dry-Bulb Temperature Range Modifier Type
  ,                                       ! Dry-Bulb Temperature Range Modifier Schedule Name
  ASHRAETau,                              ! Solar Model Indicator
  ,                                       ! Beam Solar Day Schedule Name
  ,                                       ! Diffuse Solar Day Schedule Name
  0.463,                                  ! ASHRAE Taub {dimensionless}
  2.116;                                  ! ASHRAE Taud {dimensionless}

OS:ComponentData,
  {2d3a1d34-4fca-4393-9d9c-c9503fbb5efd}, ! Handle
  Component Data 1,                       ! Name
  {fcd22f66-d85f-4994-9a42-754d8ef7bf58}, ! UUID
  {e50cbee7-31be-4590-92fc-dfa63d91bb41}, ! Version UUID
  1366310623,                             ! Creation Timestamp
  1366310623,                             ! Version Timestamp
  {69c858e2-bb3b-4b24-9b9a-81a5896a7636}; ! Name of Object 1

