
OS:Version,
  {d2154773-b977-4dc5-8c05-14dfc795128a}, ! Handle
  0.9.3;                                  ! Version Identifier

OS:SizingPeriod:DesignDay,
  {7dea4b7e-97fc-4dbe-91f4-28908ba2cad4}, ! Handle
  COLUMBUS Ann Htg Wind 99.6% Condns WS=>MCDB, ! Name
  8.4,                                    ! Maximum Dry-Bulb Temperature {C}
  0,                                      ! Daily Dry-Bulb Temperature Range {deltaC}
  8.4,                                    ! Humidity Indicating Conditions at Maximum Dry-Bulb {BasedOnField A3}
  99702,                                  ! Barometric Pressure {Pa}
  9.3,                                    ! Wind Speed {m/s}
  330,                                    ! Wind Direction {deg}
  0,                                      ! Sky Clearness
  0,                                      ! Rain Indicator
  0,                                      ! Snow Indicator
  21,                                     ! Day of Month
  1,                                      ! Month
  WinterDesignDay,                        ! Day Type
  0,                                      ! Daylight Saving Time Indicator
  Wetbulb,                                ! Humidity Indicating Type
  ,                                       ! Humidity Indicating Day Schedule Name
  DefaultMultipliers,                     ! Dry-Bulb Temperature Range Modifier Type
  ,                                       ! Dry-Bulb Temperature Range Modifier Schedule Name
  ASHRAEClearSky;                         ! Solar Model Indicator

OS:ComponentData,
  {d85dce6d-4355-46c3-9ead-55d2d9a0d8fc}, ! Handle
  Component Data 1,                       ! Name
  {fa64c591-f675-4a8e-a211-0776c457122b}, ! UUID
  {1d167877-d113-4059-be9d-4e1486f3b197}, ! Version UUID
  1366306999,                             ! Creation Timestamp
  1366306999,                             ! Version Timestamp
  {7dea4b7e-97fc-4dbe-91f4-28908ba2cad4}; ! Name of Object 1

