
OS:Version,
  {e075e43e-a95c-44db-894e-7677e5b37923}, ! Handle
  0.9.3;                                  ! Version Identifier

OS:SizingPeriod:DesignDay,
  {09c1f45b-d922-4e48-860f-0ed8db469d23}, ! Handle
  HILO Ann Hum_n 99.6% Condns DP=>MCDB,   ! Name
  18.1,                                   ! Maximum Dry-Bulb Temperature {C}
  0,                                      ! Daily Dry-Bulb Temperature Range {deltaC}
  10.7,                                   ! Humidity Indicating Conditions at Maximum Dry-Bulb {BasedOnField A3}
  101193,                                 ! Barometric Pressure {Pa}
  2.8,                                    ! Wind Speed {m/s}
  220,                                    ! Wind Direction {deg}
  0,                                      ! Sky Clearness
  0,                                      ! Rain Indicator
  0,                                      ! Snow Indicator
  21,                                     ! Day of Month
  2,                                      ! Month
  WinterDesignDay,                        ! Day Type
  0,                                      ! Daylight Saving Time Indicator
  Dewpoint,                               ! Humidity Indicating Type
  ,                                       ! Humidity Indicating Day Schedule Name
  DefaultMultipliers,                     ! Dry-Bulb Temperature Range Modifier Type
  ,                                       ! Dry-Bulb Temperature Range Modifier Schedule Name
  ASHRAEClearSky;                         ! Solar Model Indicator

OS:ComponentData,
  {9af4ab5a-110c-4edf-af50-8ab07ad1f0e2}, ! Handle
  Component Data 1,                       ! Name
  {9361c66d-f28a-47af-9775-95726ecf72a3}, ! UUID
  {ffdf7654-4966-4ae4-9c49-98949a1598ba}, ! Version UUID
  1366307076,                             ! Creation Timestamp
  1366307076,                             ! Version Timestamp
  {09c1f45b-d922-4e48-860f-0ed8db469d23}; ! Name of Object 1

