
OS:Version,
  {80dd2e83-09a2-4011-ab3e-6ce1169be876}, ! Handle
  0.9.3;                                  ! Version Identifier

OS:SizingPeriod:DesignDay,
  {37879d3c-e068-4d54-a6f6-812f9b3c8d5b}, ! Handle
  Columbia Regional Airport Ann Hum_n 99% Condns DP=>MCDB, ! Name
  -12.8,                                  ! Maximum Dry-Bulb Temperature {C}
  0,                                      ! Daily Dry-Bulb Temperature Range {deltaC}
  -18.6,                                  ! Humidity Indicating Conditions at Maximum Dry-Bulb {BasedOnField A3}
  98100,                                  ! Barometric Pressure {Pa}
  4.4,                                    ! Wind Speed {m/s}
  280,                                    ! Wind Direction {deg}
  0,                                      ! Sky Clearness
  0,                                      ! Rain Indicator
  0,                                      ! Snow Indicator
  21,                                     ! Day of Month
  1,                                      ! Month
  WinterDesignDay,                        ! Day Type
  0,                                      ! Daylight Saving Time Indicator
  Dewpoint,                               ! Humidity Indicating Type
  ,                                       ! Humidity Indicating Day Schedule Name
  DefaultMultipliers,                     ! Dry-Bulb Temperature Range Modifier Type
  ,                                       ! Dry-Bulb Temperature Range Modifier Schedule Name
  ASHRAEClearSky;                         ! Solar Model Indicator

OS:ComponentData,
  {d843607a-7521-4f67-bd65-6068f389faf7}, ! Handle
  Component Data 1,                       ! Name
  {7271bde8-3fe7-4817-afa6-f3cdc9cc5f58}, ! UUID
  {9f19e32d-f0b4-4e85-9861-97a14ea41349}, ! Version UUID
  1366308491,                             ! Creation Timestamp
  1366308491,                             ! Version Timestamp
  {37879d3c-e068-4d54-a6f6-812f9b3c8d5b}; ! Name of Object 1

