
OS:Version,
  {39ff75f1-f67e-4e52-b7b5-ff1889b1e71e}, ! Handle
  0.9.3;                                  ! Version Identifier

OS:SizingPeriod:DesignDay,
  {6daaf60e-3112-4753-b174-deea9bd41cf6}, ! Handle
  Lancaster Gen Wm Fox Field Ann Clg 2% Condns Enth=>MDB, ! Name
  33.3,                                   ! Maximum Dry-Bulb Temperature {C}
  16,                                     ! Daily Dry-Bulb Temperature Range {deltaC}
  56900,                                  ! Humidity Indicating Conditions at Maximum Dry-Bulb {BasedOnField A3}
  93048,                                  ! Barometric Pressure {Pa}
  6.5,                                    ! Wind Speed {m/s}
  240,                                    ! Wind Direction {deg}
  0,                                      ! Sky Clearness
  0,                                      ! Rain Indicator
  0,                                      ! Snow Indicator
  21,                                     ! Day of Month
  7,                                      ! Month
  SummerDesignDay,                        ! Day Type
  0,                                      ! Daylight Saving Time Indicator
  Enthalpy,                               ! Humidity Indicating Type
  ,                                       ! Humidity Indicating Day Schedule Name
  DefaultMultipliers,                     ! Dry-Bulb Temperature Range Modifier Type
  ,                                       ! Dry-Bulb Temperature Range Modifier Schedule Name
  ASHRAETau,                              ! Solar Model Indicator
  ,                                       ! Beam Solar Day Schedule Name
  ,                                       ! Diffuse Solar Day Schedule Name
  0.431,                                  ! ASHRAE Taub {dimensionless}
  2.057;                                  ! ASHRAE Taud {dimensionless}

OS:ComponentData,
  {2e59b774-9c91-4b31-abce-a725e20eaa49}, ! Handle
  Component Data 1,                       ! Name
  {56f1189e-70ae-431b-9a4d-422c6ae678e7}, ! UUID
  {92d4e1e5-6749-48c8-a318-6737b829fa57}, ! Version UUID
  1366306458,                             ! Creation Timestamp
  1366306458,                             ! Version Timestamp
  {6daaf60e-3112-4753-b174-deea9bd41cf6}; ! Name of Object 1

