
OS:Version,
  {4602c1b5-bda8-44a8-926c-9f5eb66f13c0}, ! Handle
  0.9.3;                                  ! Version Identifier

OS:SizingPeriod:DesignDay,
  {6b583912-099e-403e-b758-bb9b049be939}, ! Handle
  Joslin Fld Magic Va  Twin Fal Ann Clg .4% Condns DB=>MWB, ! Name
  34.7,                                   ! Maximum Dry-Bulb Temperature {C}
  15.7,                                   ! Daily Dry-Bulb Temperature Range {deltaC}
  17.7,                                   ! Humidity Indicating Conditions at Maximum Dry-Bulb {BasedOnField A3}
  87716,                                  ! Barometric Pressure {Pa}
  4,                                      ! Wind Speed {m/s}
  320,                                    ! Wind Direction {deg}
  0,                                      ! Sky Clearness
  0,                                      ! Rain Indicator
  0,                                      ! Snow Indicator
  21,                                     ! Day of Month
  7,                                      ! Month
  SummerDesignDay,                        ! Day Type
  0,                                      ! Daylight Saving Time Indicator
  Wetbulb,                                ! Humidity Indicating Type
  ,                                       ! Humidity Indicating Day Schedule Name
  DefaultMultipliers,                     ! Dry-Bulb Temperature Range Modifier Type
  ,                                       ! Dry-Bulb Temperature Range Modifier Schedule Name
  ASHRAETau,                              ! Solar Model Indicator
  ,                                       ! Beam Solar Day Schedule Name
  ,                                       ! Diffuse Solar Day Schedule Name
  0.42,                                   ! ASHRAE Taub {dimensionless}
  1.979;                                  ! ASHRAE Taud {dimensionless}

OS:ComponentData,
  {8c14c68c-5411-4065-a95e-c71b56da58b6}, ! Handle
  Component Data 1,                       ! Name
  {a5f948ba-fc8e-4062-8a05-29aef011b129}, ! UUID
  {8e88711f-d65e-4747-8ed8-5846b1c2cfe5}, ! Version UUID
  1366307315,                             ! Creation Timestamp
  1366307315,                             ! Version Timestamp
  {6b583912-099e-403e-b758-bb9b049be939}; ! Name of Object 1

