
OS:Version,
  {9f555edb-bca5-4665-9cec-4b82383d059e}, ! Handle
  0.9.3;                                  ! Version Identifier

OS:SizingPeriod:DesignDay,
  {de169d1f-411c-4dbc-91a8-87f853f0dc3e}, ! Handle
  FORT_WAYNE Ann Hum_n 99% Condns DP=>MCDB, ! Name
  -15.1,                                  ! Maximum Dry-Bulb Temperature {C}
  0,                                      ! Daily Dry-Bulb Temperature Range {deltaC}
  -19.5,                                  ! Humidity Indicating Conditions at Maximum Dry-Bulb {BasedOnField A3}
  98334,                                  ! Barometric Pressure {Pa}
  4.6,                                    ! Wind Speed {m/s}
  260,                                    ! Wind Direction {deg}
  0,                                      ! Sky Clearness
  0,                                      ! Rain Indicator
  0,                                      ! Snow Indicator
  21,                                     ! Day of Month
  1,                                      ! Month
  WinterDesignDay,                        ! Day Type
  0,                                      ! Daylight Saving Time Indicator
  Dewpoint,                               ! Humidity Indicating Type
  ,                                       ! Humidity Indicating Day Schedule Name
  DefaultMultipliers,                     ! Dry-Bulb Temperature Range Modifier Type
  ,                                       ! Dry-Bulb Temperature Range Modifier Schedule Name
  ASHRAEClearSky;                         ! Solar Model Indicator

OS:ComponentData,
  {e8ff6e1d-24e2-4dbe-aad8-2ce7e4551d55}, ! Handle
  Component Data 1,                       ! Name
  {2e9f9914-8168-49b7-a85e-6c6fd2245cf4}, ! UUID
  {40d03b13-dd55-4658-a771-73d82f027f2f}, ! Version UUID
  1366307436,                             ! Creation Timestamp
  1366307436,                             ! Version Timestamp
  {de169d1f-411c-4dbc-91a8-87f853f0dc3e}; ! Name of Object 1

