
OS:Version,
  {08cabb13-ac85-4c7e-a9d9-fa5e16980f46}, ! Handle
  0.9.3;                                  ! Version Identifier

OS:SizingPeriod:DesignDay,
  {1a80b7f7-22a4-4216-88d8-fb91fd4b5f58}, ! Handle
  Chan Gurney Muni Ann Clg 1% Condns WB=>MDB, ! Name
  29.8,                                   ! Maximum Dry-Bulb Temperature {C}
  10.7,                                   ! Daily Dry-Bulb Temperature Range {deltaC}
  24,                                     ! Humidity Indicating Conditions at Maximum Dry-Bulb {BasedOnField A3}
  96519,                                  ! Barometric Pressure {Pa}
  6.7,                                    ! Wind Speed {m/s}
  180,                                    ! Wind Direction {deg}
  0,                                      ! Sky Clearness
  0,                                      ! Rain Indicator
  0,                                      ! Snow Indicator
  21,                                     ! Day of Month
  7,                                      ! Month
  SummerDesignDay,                        ! Day Type
  0,                                      ! Daylight Saving Time Indicator
  Wetbulb,                                ! Humidity Indicating Type
  ,                                       ! Humidity Indicating Day Schedule Name
  DefaultMultipliers,                     ! Dry-Bulb Temperature Range Modifier Type
  ,                                       ! Dry-Bulb Temperature Range Modifier Schedule Name
  ASHRAETau,                              ! Solar Model Indicator
  ,                                       ! Beam Solar Day Schedule Name
  ,                                       ! Diffuse Solar Day Schedule Name
  0.399,                                  ! ASHRAE Taub {dimensionless}
  2.259;                                  ! ASHRAE Taud {dimensionless}

OS:ComponentData,
  {ff6ca45a-a8c2-4dff-b732-13ed5df9a3be}, ! Handle
  Component Data 1,                       ! Name
  {22b7ff0e-5e17-4eff-b990-a39954936095}, ! UUID
  {82b5ed7e-4381-4c2e-95f5-987d36809d26}, ! Version UUID
  1366310473,                             ! Creation Timestamp
  1366310473,                             ! Version Timestamp
  {1a80b7f7-22a4-4216-88d8-fb91fd4b5f58}; ! Name of Object 1

