
OS:Version,
  {12bd6448-5d17-4c74-8ed8-02324617a043}, ! Handle
  0.9.3;                                  ! Version Identifier

OS:SizingPeriod:DesignDay,
  {7035bdb9-7b3d-4a5a-835c-43e765e5f204}, ! Handle
  Burns Municipal Arpt  Uo Ann Clg 2% Condns Enth=>MDB, ! Name
  28.4,                                   ! Maximum Dry-Bulb Temperature {C}
  20.6,                                   ! Daily Dry-Bulb Temperature Range {deltaC}
  47400,                                  ! Humidity Indicating Conditions at Maximum Dry-Bulb {BasedOnField A3}
  86959,                                  ! Barometric Pressure {Pa}
  3.4,                                    ! Wind Speed {m/s}
  200,                                    ! Wind Direction {deg}
  0,                                      ! Sky Clearness
  0,                                      ! Rain Indicator
  0,                                      ! Snow Indicator
  21,                                     ! Day of Month
  7,                                      ! Month
  SummerDesignDay,                        ! Day Type
  0,                                      ! Daylight Saving Time Indicator
  Enthalpy,                               ! Humidity Indicating Type
  ,                                       ! Humidity Indicating Day Schedule Name
  DefaultMultipliers,                     ! Dry-Bulb Temperature Range Modifier Type
  ,                                       ! Dry-Bulb Temperature Range Modifier Schedule Name
  ASHRAETau,                              ! Solar Model Indicator
  ,                                       ! Beam Solar Day Schedule Name
  ,                                       ! Diffuse Solar Day Schedule Name
  0.372,                                  ! ASHRAE Taub {dimensionless}
  2.219;                                  ! ASHRAE Taud {dimensionless}

OS:ComponentData,
  {71484b21-6ad2-4195-9430-67ea4850c4d4}, ! Handle
  Component Data 1,                       ! Name
  {9b295743-2c12-4608-b6f5-93c636583d02}, ! UUID
  {c2e27d06-9e1d-437d-8e5f-7305022f8f6c}, ! Version UUID
  1366309998,                             ! Creation Timestamp
  1366309998,                             ! Version Timestamp
  {7035bdb9-7b3d-4a5a-835c-43e765e5f204}; ! Name of Object 1

