
OS:Version,
  {bbc89ac9-ec46-4b7f-9f68-754ca3b2adeb}, ! Handle
  0.9.3;                                  ! Version Identifier

OS:SizingPeriod:DesignDay,
  {cb170237-7a93-42e3-b84f-e13576562778}, ! Handle
  Charleston Yeager Arpt Ann Htg 99% Condns DB, ! Name
  -9.6,                                   ! Maximum Dry-Bulb Temperature {C}
  0,                                      ! Daily Dry-Bulb Temperature Range {deltaC}
  -9.6,                                   ! Humidity Indicating Conditions at Maximum Dry-Bulb {BasedOnField A3}
  97656,                                  ! Barometric Pressure {Pa}
  1.9,                                    ! Wind Speed {m/s}
  240,                                    ! Wind Direction {deg}
  0,                                      ! Sky Clearness
  0,                                      ! Rain Indicator
  0,                                      ! Snow Indicator
  21,                                     ! Day of Month
  1,                                      ! Month
  WinterDesignDay,                        ! Day Type
  0,                                      ! Daylight Saving Time Indicator
  Wetbulb,                                ! Humidity Indicating Type
  ,                                       ! Humidity Indicating Day Schedule Name
  DefaultMultipliers,                     ! Dry-Bulb Temperature Range Modifier Type
  ,                                       ! Dry-Bulb Temperature Range Modifier Schedule Name
  ASHRAEClearSky;                         ! Solar Model Indicator

OS:ComponentData,
  {af08b61c-fb0d-49ad-99e4-892e638a56cc}, ! Handle
  Component Data 1,                       ! Name
  {f9ccfd02-2a6b-4013-a7da-c95778b3fbb0}, ! UUID
  {94b745da-680c-40cb-8336-94b73fc489b7}, ! Version UUID
  1366311624,                             ! Creation Timestamp
  1366311624,                             ! Version Timestamp
  {cb170237-7a93-42e3-b84f-e13576562778}; ! Name of Object 1

