
OS:Version,
  {9b9c6546-a4e2-4808-9cfc-c4dad84ead87}, ! Handle
  0.9.3;                                  ! Version Identifier

OS:SizingPeriod:DesignDay,
  {ccf8a4cb-225c-491a-abc5-8ed826dbb2e1}, ! Handle
  Lubbock/Int'l Arpt Ann Clg 1% Condns DB=>MWB, ! Name
  35.7,                                   ! Maximum Dry-Bulb Temperature {C}
  13.1,                                   ! Daily Dry-Bulb Temperature Range {deltaC}
  19.7,                                   ! Humidity Indicating Conditions at Maximum Dry-Bulb {BasedOnField A3}
  90005,                                  ! Barometric Pressure {Pa}
  6.4,                                    ! Wind Speed {m/s}
  170,                                    ! Wind Direction {deg}
  0,                                      ! Sky Clearness
  0,                                      ! Rain Indicator
  0,                                      ! Snow Indicator
  21,                                     ! Day of Month
  7,                                      ! Month
  SummerDesignDay,                        ! Day Type
  0,                                      ! Daylight Saving Time Indicator
  Wetbulb,                                ! Humidity Indicating Type
  ,                                       ! Humidity Indicating Day Schedule Name
  DefaultMultipliers,                     ! Dry-Bulb Temperature Range Modifier Type
  ,                                       ! Dry-Bulb Temperature Range Modifier Schedule Name
  ASHRAETau,                              ! Solar Model Indicator
  ,                                       ! Beam Solar Day Schedule Name
  ,                                       ! Diffuse Solar Day Schedule Name
  0.396,                                  ! ASHRAE Taub {dimensionless}
  2.241;                                  ! ASHRAE Taud {dimensionless}

OS:ComponentData,
  {bdb7c764-b9fc-4fe8-90e5-31b6ae0b54a7}, ! Handle
  Component Data 1,                       ! Name
  {75f9e254-3435-466c-8bc9-e2734ed55640}, ! UUID
  {b3f2b8b3-af32-4780-9d91-5a500c95f6a0}, ! Version UUID
  1366310795,                             ! Creation Timestamp
  1366310795,                             ! Version Timestamp
  {ccf8a4cb-225c-491a-abc5-8ed826dbb2e1}; ! Name of Object 1

