
OS:Version,
  {0232c9f4-9c4f-4c40-b101-0cd371fa42b8}, ! Handle
  0.9.3;                                  ! Version Identifier

OS:SizingPeriod:DesignDay,
  {cb2e1321-d9fa-41ba-b8c3-a1335fc956c7}, ! Handle
  Bar Harbor  Awos Ann Clg .4% Condns DB=>MWB, ! Name
  27.6,                                   ! Maximum Dry-Bulb Temperature {C}
  9.6,                                    ! Daily Dry-Bulb Temperature Range {deltaC}
  19.8,                                   ! Humidity Indicating Conditions at Maximum Dry-Bulb {BasedOnField A3}
  101013,                                 ! Barometric Pressure {Pa}
  4,                                      ! Wind Speed {m/s}
  220,                                    ! Wind Direction {deg}
  0,                                      ! Sky Clearness
  0,                                      ! Rain Indicator
  0,                                      ! Snow Indicator
  21,                                     ! Day of Month
  7,                                      ! Month
  SummerDesignDay,                        ! Day Type
  0,                                      ! Daylight Saving Time Indicator
  Wetbulb,                                ! Humidity Indicating Type
  ,                                       ! Humidity Indicating Day Schedule Name
  DefaultMultipliers,                     ! Dry-Bulb Temperature Range Modifier Type
  ,                                       ! Dry-Bulb Temperature Range Modifier Schedule Name
  ASHRAETau,                              ! Solar Model Indicator
  ,                                       ! Beam Solar Day Schedule Name
  ,                                       ! Diffuse Solar Day Schedule Name
  0.469,                                  ! ASHRAE Taub {dimensionless}
  1.996;                                  ! ASHRAE Taud {dimensionless}

OS:ComponentData,
  {471d816e-d82c-4d0a-ad18-e240d1986390}, ! Handle
  Component Data 1,                       ! Name
  {fd279ea8-a27a-4a15-bafd-79ccbe579aea}, ! UUID
  {f62bc474-e87e-4bf0-beeb-9c9d20158bfe}, ! Version UUID
  1366307878,                             ! Creation Timestamp
  1366307878,                             ! Version Timestamp
  {cb2e1321-d9fa-41ba-b8c3-a1335fc956c7}; ! Name of Object 1

