
OS:Version,
  {0218b01c-85b6-4e75-90c7-e2a9b479fe75}, ! Handle
  0.9.3;                                  ! Version Identifier

OS:SizingPeriod:DesignDay,
  {e69eb8e9-5f8f-4563-b530-454bd0b2bd3c}, ! Handle
  Houston William P Hobby Ap Ann Clg 2% Condns DB=>MWB, ! Name
  33.3,                                   ! Maximum Dry-Bulb Temperature {C}
  9,                                      ! Daily Dry-Bulb Temperature Range {deltaC}
  25.1,                                   ! Humidity Indicating Conditions at Maximum Dry-Bulb {BasedOnField A3}
  101169,                                 ! Barometric Pressure {Pa}
  3.5,                                    ! Wind Speed {m/s}
  180,                                    ! Wind Direction {deg}
  0,                                      ! Sky Clearness
  0,                                      ! Rain Indicator
  0,                                      ! Snow Indicator
  21,                                     ! Day of Month
  8,                                      ! Month
  SummerDesignDay,                        ! Day Type
  0,                                      ! Daylight Saving Time Indicator
  Wetbulb,                                ! Humidity Indicating Type
  ,                                       ! Humidity Indicating Day Schedule Name
  DefaultMultipliers,                     ! Dry-Bulb Temperature Range Modifier Type
  ,                                       ! Dry-Bulb Temperature Range Modifier Schedule Name
  ASHRAETau,                              ! Solar Model Indicator
  ,                                       ! Beam Solar Day Schedule Name
  ,                                       ! Diffuse Solar Day Schedule Name
  0.507,                                  ! ASHRAE Taub {dimensionless}
  1.944;                                  ! ASHRAE Taud {dimensionless}

OS:ComponentData,
  {a3849a02-dd3c-4fd1-8248-29d883b6fa22}, ! Handle
  Component Data 1,                       ! Name
  {cbe8b5e9-b911-439e-89af-c1d875b1326b}, ! UUID
  {e0a483b9-93e4-43e5-a82f-4de424dfd1f0}, ! Version UUID
  1366310760,                             ! Creation Timestamp
  1366310760,                             ! Version Timestamp
  {e69eb8e9-5f8f-4563-b530-454bd0b2bd3c}; ! Name of Object 1

