
OS:Version,
  {084502b7-ad81-43ab-8791-8c024db6cc77}, ! Handle
  0.9.3;                                  ! Version Identifier

OS:SizingPeriod:DesignDay,
  {77db0608-a145-4bcd-8418-a1aadc1bff68}, ! Handle
  Ely Muni Ann Clg 2% Condns Enth=>MDB,   ! Name
  25.1,                                   ! Maximum Dry-Bulb Temperature {C}
  12.2,                                   ! Daily Dry-Bulb Temperature Range {deltaC}
  61500,                                  ! Humidity Indicating Conditions at Maximum Dry-Bulb {BasedOnField A3}
  95977,                                  ! Barometric Pressure {Pa}
  4,                                      ! Wind Speed {m/s}
  230,                                    ! Wind Direction {deg}
  0,                                      ! Sky Clearness
  0,                                      ! Rain Indicator
  0,                                      ! Snow Indicator
  21,                                     ! Day of Month
  7,                                      ! Month
  SummerDesignDay,                        ! Day Type
  0,                                      ! Daylight Saving Time Indicator
  Enthalpy,                               ! Humidity Indicating Type
  ,                                       ! Humidity Indicating Day Schedule Name
  DefaultMultipliers,                     ! Dry-Bulb Temperature Range Modifier Type
  ,                                       ! Dry-Bulb Temperature Range Modifier Schedule Name
  ASHRAETau,                              ! Solar Model Indicator
  ,                                       ! Beam Solar Day Schedule Name
  ,                                       ! Diffuse Solar Day Schedule Name
  0.408,                                  ! ASHRAE Taub {dimensionless}
  2.169;                                  ! ASHRAE Taud {dimensionless}

OS:ComponentData,
  {683c7f0e-71c1-491b-bc0f-0090a07ed147}, ! Handle
  Component Data 1,                       ! Name
  {3f579add-ccaa-4b7c-8c30-ca7c5ce3b1b9}, ! UUID
  {0b3972d5-4439-4132-ab14-86ad413f8609}, ! Version UUID
  1366308217,                             ! Creation Timestamp
  1366308217,                             ! Version Timestamp
  {77db0608-a145-4bcd-8418-a1aadc1bff68}; ! Name of Object 1

