
OS:Version,
  {ebe5dcac-458d-4a84-89cf-d2360dab1aad}, ! Handle
  0.9.3;                                  ! Version Identifier

OS:SizingPeriod:DesignDay,
  {ed1d039e-1711-4e53-aa05-a5762b58eea4}, ! Handle
  Adak NAS Ann Clg .4% Condns Enth=>MDB,  ! Name
  15,                                     ! Maximum Dry-Bulb Temperature {C}
  4.9,                                    ! Daily Dry-Bulb Temperature Range {deltaC}
  37100,                                  ! Humidity Indicating Conditions at Maximum Dry-Bulb {BasedOnField A3}
  101265,                                 ! Barometric Pressure {Pa}
  4.9,                                    ! Wind Speed {m/s}
  180,                                    ! Wind Direction {deg}
  0,                                      ! Sky Clearness
  0,                                      ! Rain Indicator
  0,                                      ! Snow Indicator
  21,                                     ! Day of Month
  8,                                      ! Month
  SummerDesignDay,                        ! Day Type
  0,                                      ! Daylight Saving Time Indicator
  Enthalpy,                               ! Humidity Indicating Type
  ,                                       ! Humidity Indicating Day Schedule Name
  DefaultMultipliers,                     ! Dry-Bulb Temperature Range Modifier Type
  ,                                       ! Dry-Bulb Temperature Range Modifier Schedule Name
  ASHRAETau,                              ! Solar Model Indicator
  ,                                       ! Beam Solar Day Schedule Name
  ,                                       ! Diffuse Solar Day Schedule Name
  0.394,                                  ! ASHRAE Taub {dimensionless}
  2.21;                                   ! ASHRAE Taud {dimensionless}

OS:ComponentData,
  {84e24769-c294-45f7-bb3a-921f36afe0e3}, ! Handle
  Component Data 1,                       ! Name
  {95b978af-f332-4634-a761-31a282d54ddf}, ! UUID
  {f01e0e88-9b93-448c-8b76-bacefce77b2f}, ! Version UUID
  1364004395,                             ! Creation Timestamp
  1364004395,                             ! Version Timestamp
  {ed1d039e-1711-4e53-aa05-a5762b58eea4}; ! Name of Object 1

