
OS:Version,
  {4f6264e1-c26f-4fc1-bbf0-62c2da741bb1}, ! Handle
  0.9.3;                                  ! Version Identifier

OS:SizingPeriod:DesignDay,
  {927a9531-a22a-47f4-b74f-5c24ea3d8cfd}, ! Handle
  Fargo Hector International Ap Ann Htg 99.6% Condns DB, ! Name
  -29.1,                                  ! Maximum Dry-Bulb Temperature {C}
  0,                                      ! Daily Dry-Bulb Temperature Range {deltaC}
  -29.1,                                  ! Humidity Indicating Conditions at Maximum Dry-Bulb {BasedOnField A3}
  98076,                                  ! Barometric Pressure {Pa}
  3.6,                                    ! Wind Speed {m/s}
  200,                                    ! Wind Direction {deg}
  0,                                      ! Sky Clearness
  0,                                      ! Rain Indicator
  0,                                      ! Snow Indicator
  21,                                     ! Day of Month
  1,                                      ! Month
  WinterDesignDay,                        ! Day Type
  0,                                      ! Daylight Saving Time Indicator
  Wetbulb,                                ! Humidity Indicating Type
  ,                                       ! Humidity Indicating Day Schedule Name
  DefaultMultipliers,                     ! Dry-Bulb Temperature Range Modifier Type
  ,                                       ! Dry-Bulb Temperature Range Modifier Schedule Name
  ASHRAEClearSky;                         ! Solar Model Indicator

OS:ComponentData,
  {aa11f1ca-d9d3-4a76-8914-2fe520a0acdb}, ! Handle
  Component Data 1,                       ! Name
  {22b9e243-9971-45c0-8363-c03245440193}, ! UUID
  {ff9c30ff-702c-4596-9b64-27ede4f0653f}, ! Version UUID
  1366309029,                             ! Creation Timestamp
  1366309029,                             ! Version Timestamp
  {927a9531-a22a-47f4-b74f-5c24ea3d8cfd}; ! Name of Object 1

