
OS:Version,
  {fc9c6321-88dc-4dda-b857-f5dcf2149a5a}, ! Handle
  0.9.3;                                  ! Version Identifier

OS:SizingPeriod:DesignDay,
  {de04ca7c-9d44-4c2e-ba1c-c4cee513e44d}, ! Handle
  Charleston Ann Hum_n 99.6% Condns DP=>MCDB, ! Name
  1.7,                                    ! Maximum Dry-Bulb Temperature {C}
  0,                                      ! Daily Dry-Bulb Temperature Range {deltaC}
  -13.4,                                  ! Humidity Indicating Conditions at Maximum Dry-Bulb {BasedOnField A3}
  101145,                                 ! Barometric Pressure {Pa}
  2.7,                                    ! Wind Speed {m/s}
  20,                                     ! Wind Direction {deg}
  0,                                      ! Sky Clearness
  0,                                      ! Rain Indicator
  0,                                      ! Snow Indicator
  21,                                     ! Day of Month
  1,                                      ! Month
  WinterDesignDay,                        ! Day Type
  0,                                      ! Daylight Saving Time Indicator
  Dewpoint,                               ! Humidity Indicating Type
  ,                                       ! Humidity Indicating Day Schedule Name
  DefaultMultipliers,                     ! Dry-Bulb Temperature Range Modifier Type
  ,                                       ! Dry-Bulb Temperature Range Modifier Schedule Name
  ASHRAEClearSky;                         ! Solar Model Indicator

OS:ComponentData,
  {8c703b01-93c5-4a53-aa53-8ceb41d196b3}, ! Handle
  Component Data 1,                       ! Name
  {e934b287-14b4-4cc8-b17e-de238ee2c777}, ! UUID
  {837d1eda-799e-44d7-a6ab-01b28b6140b2}, ! Version UUID
  1366310326,                             ! Creation Timestamp
  1366310326,                             ! Version Timestamp
  {de04ca7c-9d44-4c2e-ba1c-c4cee513e44d}; ! Name of Object 1

