
OS:Version,
  {fae533ae-8e9a-422a-a376-16a8cd0e7f7f}, ! Handle
  0.9.3;                                  ! Version Identifier

OS:SizingPeriod:DesignDay,
  {1dbbf85c-c314-4534-bf8d-03b9dbb4228b}, ! Handle
  Dayton/Wright-Paterson Ann Clg .4% Condns DB=>MWB, ! Name
  33,                                     ! Maximum Dry-Bulb Temperature {C}
  11,                                     ! Daily Dry-Bulb Temperature Range {deltaC}
  23.6,                                   ! Humidity Indicating Conditions at Maximum Dry-Bulb {BasedOnField A3}
  98346,                                  ! Barometric Pressure {Pa}
  3.9,                                    ! Wind Speed {m/s}
  240,                                    ! Wind Direction {deg}
  0,                                      ! Sky Clearness
  0,                                      ! Rain Indicator
  0,                                      ! Snow Indicator
  21,                                     ! Day of Month
  7,                                      ! Month
  SummerDesignDay,                        ! Day Type
  0,                                      ! Daylight Saving Time Indicator
  Wetbulb,                                ! Humidity Indicating Type
  ,                                       ! Humidity Indicating Day Schedule Name
  DefaultMultipliers,                     ! Dry-Bulb Temperature Range Modifier Type
  ,                                       ! Dry-Bulb Temperature Range Modifier Schedule Name
  ASHRAETau,                              ! Solar Model Indicator
  ,                                       ! Beam Solar Day Schedule Name
  ,                                       ! Diffuse Solar Day Schedule Name
  0.484,                                  ! ASHRAE Taub {dimensionless}
  1.94;                                   ! ASHRAE Taud {dimensionless}

OS:ComponentData,
  {e51c9963-065d-4e69-a9d4-9480e1849500}, ! Handle
  Component Data 1,                       ! Name
  {d064e008-3b2d-46b6-ac0b-fbc2248520ed}, ! UUID
  {5811cc05-bd06-4c6e-8303-c012e336dc3b}, ! Version UUID
  1366309807,                             ! Creation Timestamp
  1366309807,                             ! Version Timestamp
  {1dbbf85c-c314-4534-bf8d-03b9dbb4228b}; ! Name of Object 1

