
OS:Version,
  {c1af18a9-179d-4bf3-988b-2a58fbe78445}, ! Handle
  0.9.3;                                  ! Version Identifier

OS:SizingPeriod:DesignDay,
  {b7eb0cba-d0d4-4d5e-aa22-21f5f0dd7989}, ! Handle
  Erie International Ap Ann Clg 2% Condns WB=>MDB, ! Name
  26.4,                                   ! Maximum Dry-Bulb Temperature {C}
  8.3,                                    ! Daily Dry-Bulb Temperature Range {deltaC}
  22.5,                                   ! Humidity Indicating Conditions at Maximum Dry-Bulb {BasedOnField A3}
  98686,                                  ! Barometric Pressure {Pa}
  5,                                      ! Wind Speed {m/s}
  260,                                    ! Wind Direction {deg}
  0,                                      ! Sky Clearness
  0,                                      ! Rain Indicator
  0,                                      ! Snow Indicator
  21,                                     ! Day of Month
  7,                                      ! Month
  SummerDesignDay,                        ! Day Type
  0,                                      ! Daylight Saving Time Indicator
  Wetbulb,                                ! Humidity Indicating Type
  ,                                       ! Humidity Indicating Day Schedule Name
  DefaultMultipliers,                     ! Dry-Bulb Temperature Range Modifier Type
  ,                                       ! Dry-Bulb Temperature Range Modifier Schedule Name
  ASHRAETau,                              ! Solar Model Indicator
  ,                                       ! Beam Solar Day Schedule Name
  ,                                       ! Diffuse Solar Day Schedule Name
  0.455,                                  ! ASHRAE Taub {dimensionless}
  2.041;                                  ! ASHRAE Taud {dimensionless}

OS:ComponentData,
  {dfc94317-2de3-452f-92c1-d1cc93beab38}, ! Handle
  Component Data 1,                       ! Name
  {f4d4320b-45e2-4317-bb04-2415a13b6539}, ! UUID
  {3f16c041-0e7b-4055-b016-c53a90441c17}, ! Version UUID
  1366310174,                             ! Creation Timestamp
  1366310174,                             ! Version Timestamp
  {b7eb0cba-d0d4-4d5e-aa22-21f5f0dd7989}; ! Name of Object 1

