
OS:Version,
  {171abfb5-e9a7-4b74-be9a-41dbe0b51031}, ! Handle
  0.9.3;                                  ! Version Identifier

OS:SizingPeriod:DesignDay,
  {a0bc3251-6ae0-4208-97fb-4d7e06e029bb}, ! Handle
  Fort Lauderdale Hollywood Int Ann Clg 2% Condns WB=>MDB, ! Name
  30.4,                                   ! Maximum Dry-Bulb Temperature {C}
  6.1,                                    ! Daily Dry-Bulb Temperature Range {deltaC}
  26.6,                                   ! Humidity Indicating Conditions at Maximum Dry-Bulb {BasedOnField A3}
  101289,                                 ! Barometric Pressure {Pa}
  4.8,                                    ! Wind Speed {m/s}
  140,                                    ! Wind Direction {deg}
  0,                                      ! Sky Clearness
  0,                                      ! Rain Indicator
  0,                                      ! Snow Indicator
  21,                                     ! Day of Month
  7,                                      ! Month
  SummerDesignDay,                        ! Day Type
  0,                                      ! Daylight Saving Time Indicator
  Wetbulb,                                ! Humidity Indicating Type
  ,                                       ! Humidity Indicating Day Schedule Name
  DefaultMultipliers,                     ! Dry-Bulb Temperature Range Modifier Type
  ,                                       ! Dry-Bulb Temperature Range Modifier Schedule Name
  ASHRAETau,                              ! Solar Model Indicator
  ,                                       ! Beam Solar Day Schedule Name
  ,                                       ! Diffuse Solar Day Schedule Name
  0.518,                                  ! ASHRAE Taub {dimensionless}
  1.938;                                  ! ASHRAE Taud {dimensionless}

OS:ComponentData,
  {82ca6957-3526-48e0-821f-297be8b31812}, ! Handle
  Component Data 1,                       ! Name
  {f3d80e40-5544-42ea-950a-f942bc10e914}, ! UUID
  {d59b9b28-87eb-4f57-aebc-6d0feb1d7dd4}, ! Version UUID
  1366306798,                             ! Creation Timestamp
  1366306798,                             ! Version Timestamp
  {a0bc3251-6ae0-4208-97fb-4d7e06e029bb}; ! Name of Object 1

