
OS:Version,
  {cb1fda91-3b57-4b70-aeb9-ea6fa20eca0d}, ! Handle
  0.9.3;                                  ! Version Identifier

OS:SizingPeriod:DesignDay,
  {42f91793-fb1c-4cfb-90da-01cca1ee04d5}, ! Handle
  Gallup Sen Clarke Fld Ann Clg 2% Condns WB=>MDB, ! Name
  24.7,                                   ! Maximum Dry-Bulb Temperature {C}
  17.9,                                   ! Daily Dry-Bulb Temperature Range {deltaC}
  15.8,                                   ! Humidity Indicating Conditions at Maximum Dry-Bulb {BasedOnField A3}
  79782,                                  ! Barometric Pressure {Pa}
  4.7,                                    ! Wind Speed {m/s}
  240,                                    ! Wind Direction {deg}
  0,                                      ! Sky Clearness
  0,                                      ! Rain Indicator
  0,                                      ! Snow Indicator
  21,                                     ! Day of Month
  7,                                      ! Month
  SummerDesignDay,                        ! Day Type
  0,                                      ! Daylight Saving Time Indicator
  Wetbulb,                                ! Humidity Indicating Type
  ,                                       ! Humidity Indicating Day Schedule Name
  DefaultMultipliers,                     ! Dry-Bulb Temperature Range Modifier Type
  ,                                       ! Dry-Bulb Temperature Range Modifier Schedule Name
  ASHRAETau,                              ! Solar Model Indicator
  ,                                       ! Beam Solar Day Schedule Name
  ,                                       ! Diffuse Solar Day Schedule Name
  0.383,                                  ! ASHRAE Taub {dimensionless}
  2.165;                                  ! ASHRAE Taud {dimensionless}

OS:ComponentData,
  {a739b11e-49f4-4513-8cd8-7630f385e497}, ! Handle
  Component Data 1,                       ! Name
  {9c8c82c6-4919-4dce-ae65-f95a3a89ceec}, ! UUID
  {6aa50d4d-166a-4da0-865d-f0eba75ae179}, ! Version UUID
  1366309409,                             ! Creation Timestamp
  1366309409,                             ! Version Timestamp
  {42f91793-fb1c-4cfb-90da-01cca1ee04d5}; ! Name of Object 1

