
OS:Version,
  {59758dad-03ce-4ef2-bd7d-9eaa11943f24}, ! Handle
  0.9.3;                                  ! Version Identifier

OS:SizingPeriod:DesignDay,
  {51f85b96-75f1-47c9-8a70-fe004e099a17}, ! Handle
  EAGLE Ann Clg 2% Condns DB=>MWB,        ! Name
  28,                                     ! Maximum Dry-Bulb Temperature {C}
  19,                                     ! Daily Dry-Bulb Temperature Range {deltaC}
  13,                                     ! Humidity Indicating Conditions at Maximum Dry-Bulb {BasedOnField A3}
  79643,                                  ! Barometric Pressure {Pa}
  4.9,                                    ! Wind Speed {m/s}
  240,                                    ! Wind Direction {deg}
  0,                                      ! Sky Clearness
  0,                                      ! Rain Indicator
  0,                                      ! Snow Indicator
  21,                                     ! Day of Month
  7,                                      ! Month
  SummerDesignDay,                        ! Day Type
  0,                                      ! Daylight Saving Time Indicator
  Wetbulb,                                ! Humidity Indicating Type
  ,                                       ! Humidity Indicating Day Schedule Name
  DefaultMultipliers,                     ! Dry-Bulb Temperature Range Modifier Type
  ,                                       ! Dry-Bulb Temperature Range Modifier Schedule Name
  ASHRAETau,                              ! Solar Model Indicator
  ,                                       ! Beam Solar Day Schedule Name
  ,                                       ! Diffuse Solar Day Schedule Name
  0.4,                                    ! ASHRAE Taub {dimensionless}
  2.165;                                  ! ASHRAE Taud {dimensionless}

OS:ComponentData,
  {d7e17c35-90d2-421f-b58f-c46da2341c62}, ! Handle
  Component Data 1,                       ! Name
  {3ce6756e-af2a-439b-91e2-4d1ef3e2e57e}, ! UUID
  {e2096fc1-607a-4a04-ab6f-b1023f4ee07a}, ! Version UUID
  1366306683,                             ! Creation Timestamp
  1366306683,                             ! Version Timestamp
  {51f85b96-75f1-47c9-8a70-fe004e099a17}; ! Name of Object 1

