
OS:Version,
  {fec76af5-2246-4c82-993f-b6b9b1948b1c}, ! Handle
  0.9.3;                                  ! Version Identifier

OS:SizingPeriod:DesignDay,
  {9a58e587-978e-4813-add4-3dada62b91e8}, ! Handle
  CHARLESTON Ann Clg .4% Condns WB=>MDB,  ! Name
  31.7,                                   ! Maximum Dry-Bulb Temperature {C}
  9,                                      ! Daily Dry-Bulb Temperature Range {deltaC}
  27,                                     ! Humidity Indicating Conditions at Maximum Dry-Bulb {BasedOnField A3}
  101181,                                 ! Barometric Pressure {Pa}
  4.4,                                    ! Wind Speed {m/s}
  230,                                    ! Wind Direction {deg}
  0,                                      ! Sky Clearness
  0,                                      ! Rain Indicator
  0,                                      ! Snow Indicator
  21,                                     ! Day of Month
  7,                                      ! Month
  SummerDesignDay,                        ! Day Type
  0,                                      ! Daylight Saving Time Indicator
  Wetbulb,                                ! Humidity Indicating Type
  ,                                       ! Humidity Indicating Day Schedule Name
  DefaultMultipliers,                     ! Dry-Bulb Temperature Range Modifier Type
  ,                                       ! Dry-Bulb Temperature Range Modifier Schedule Name
  ASHRAETau,                              ! Solar Model Indicator
  ,                                       ! Beam Solar Day Schedule Name
  ,                                       ! Diffuse Solar Day Schedule Name
  0.559,                                  ! ASHRAE Taub {dimensionless}
  1.811;                                  ! ASHRAE Taud {dimensionless}

