
OS:Version,
  {836ee8a0-30e8-4ee5-a508-ebb44dbf244f}, ! Handle
  0.9.3;                                  ! Version Identifier

OS:SizingPeriod:DesignDay,
  {923929c4-b186-49e3-84cb-3e2ad0b8baa4}, ! Handle
  Butler Co   Awos Ann Clg 1% Condns DB=>MWB, ! Name
  29.1,                                   ! Maximum Dry-Bulb Temperature {C}
  10.9,                                   ! Daily Dry-Bulb Temperature Range {deltaC}
  21.5,                                   ! Humidity Indicating Conditions at Maximum Dry-Bulb {BasedOnField A3}
  96842,                                  ! Barometric Pressure {Pa}
  2.9,                                    ! Wind Speed {m/s}
  250,                                    ! Wind Direction {deg}
  0,                                      ! Sky Clearness
  0,                                      ! Rain Indicator
  0,                                      ! Snow Indicator
  21,                                     ! Day of Month
  7,                                      ! Month
  SummerDesignDay,                        ! Day Type
  0,                                      ! Daylight Saving Time Indicator
  Wetbulb,                                ! Humidity Indicating Type
  ,                                       ! Humidity Indicating Day Schedule Name
  DefaultMultipliers,                     ! Dry-Bulb Temperature Range Modifier Type
  ,                                       ! Dry-Bulb Temperature Range Modifier Schedule Name
  ASHRAETau,                              ! Solar Model Indicator
  ,                                       ! Beam Solar Day Schedule Name
  ,                                       ! Diffuse Solar Day Schedule Name
  0.469,                                  ! ASHRAE Taub {dimensionless}
  1.965;                                  ! ASHRAE Taud {dimensionless}

OS:ComponentData,
  {7dec835b-98a7-4bc8-9375-83787d636d18}, ! Handle
  Component Data 1,                       ! Name
  {82cae8dc-ee49-4017-a03b-b431a8b0b98a}, ! UUID
  {e0c87611-9062-4233-8fc9-a4af3508d9e6}, ! Version UUID
  1366310154,                             ! Creation Timestamp
  1366310154,                             ! Version Timestamp
  {923929c4-b186-49e3-84cb-3e2ad0b8baa4}; ! Name of Object 1

