
OS:Version,
  {45f3fd77-62a6-42e6-b9ca-c675366259f8}, ! Handle
  0.9.3;                                  ! Version Identifier

OS:SizingPeriod:DesignDay,
  {82095493-9979-4a3e-9d01-fa746b3beed0}, ! Handle
  Great Falls/Malmstrom Ann Clg 2% Condns Enth=>MDB, ! Name
  26.8,                                   ! Maximum Dry-Bulb Temperature {C}
  16,                                     ! Daily Dry-Bulb Temperature Range {deltaC}
  49000,                                  ! Humidity Indicating Conditions at Maximum Dry-Bulb {BasedOnField A3}
  89060,                                  ! Barometric Pressure {Pa}
  4.9,                                    ! Wind Speed {m/s}
  240,                                    ! Wind Direction {deg}
  0,                                      ! Sky Clearness
  0,                                      ! Rain Indicator
  0,                                      ! Snow Indicator
  21,                                     ! Day of Month
  7,                                      ! Month
  SummerDesignDay,                        ! Day Type
  0,                                      ! Daylight Saving Time Indicator
  Enthalpy,                               ! Humidity Indicating Type
  ,                                       ! Humidity Indicating Day Schedule Name
  DefaultMultipliers,                     ! Dry-Bulb Temperature Range Modifier Type
  ,                                       ! Dry-Bulb Temperature Range Modifier Schedule Name
  ASHRAETau,                              ! Solar Model Indicator
  ,                                       ! Beam Solar Day Schedule Name
  ,                                       ! Diffuse Solar Day Schedule Name
  0.383,                                  ! ASHRAE Taub {dimensionless}
  2.176;                                  ! ASHRAE Taud {dimensionless}

OS:ComponentData,
  {ec6134a0-6f15-4eef-8ba6-014901db3efa}, ! Handle
  Component Data 1,                       ! Name
  {bbaa2ba7-30b7-46ac-bd3d-8df7118c109d}, ! UUID
  {cf03dc10-2646-4adb-ba78-157b2ec1f85c}, ! Version UUID
  1366308777,                             ! Creation Timestamp
  1366308777,                             ! Version Timestamp
  {82095493-9979-4a3e-9d01-fa746b3beed0}; ! Name of Object 1

