
OS:Version,
  {35cc1218-94e7-4e56-8de0-f8036ab14fee}, ! Handle
  0.9.3;                                  ! Version Identifier

OS:SizingPeriod:DesignDay,
  {735ae3a6-aea5-4199-b0a0-5cda62113947}, ! Handle
  Denver Intl Ap Ann Hum_n 99% Condns DP=>MCDB, ! Name
  -6.9,                                   ! Maximum Dry-Bulb Temperature {C}
  0,                                      ! Daily Dry-Bulb Temperature Range {deltaC}
  -18.9,                                  ! Humidity Indicating Conditions at Maximum Dry-Bulb {BasedOnField A3}
  83011,                                  ! Barometric Pressure {Pa}
  3.3,                                    ! Wind Speed {m/s}
  160,                                    ! Wind Direction {deg}
  0,                                      ! Sky Clearness
  0,                                      ! Rain Indicator
  0,                                      ! Snow Indicator
  21,                                     ! Day of Month
  12,                                     ! Month
  WinterDesignDay,                        ! Day Type
  0,                                      ! Daylight Saving Time Indicator
  Dewpoint,                               ! Humidity Indicating Type
  ,                                       ! Humidity Indicating Day Schedule Name
  DefaultMultipliers,                     ! Dry-Bulb Temperature Range Modifier Type
  ,                                       ! Dry-Bulb Temperature Range Modifier Schedule Name
  ASHRAEClearSky;                         ! Solar Model Indicator

OS:ComponentData,
  {90da36c1-3f95-407a-ad7a-7be93b6426d3}, ! Handle
  Component Data 1,                       ! Name
  {340aa17a-ddb2-447d-a4a4-fb96bc28d960}, ! UUID
  {8a24dcf6-13d4-443e-b8e3-896ba4a2e9ca}, ! Version UUID
  1366306677,                             ! Creation Timestamp
  1366306677,                             ! Version Timestamp
  {735ae3a6-aea5-4199-b0a0-5cda62113947}; ! Name of Object 1

