
OS:Version,
  {d0704e62-ab15-4dbc-b626-989a1b0736b8}, ! Handle
  0.9.3;                                  ! Version Identifier

OS:SizingPeriod:DesignDay,
  {b304f0c8-31bb-4636-83ce-e6eb7672ce4b}, ! Handle
  Kirksville Regional Ap Ann Clg 2% Condns DP=>MDB, ! Name
  27.6,                                   ! Maximum Dry-Bulb Temperature {C}
  10.6,                                   ! Daily Dry-Bulb Temperature Range {deltaC}
  22.4,                                   ! Humidity Indicating Conditions at Maximum Dry-Bulb {BasedOnField A3}
  97843,                                  ! Barometric Pressure {Pa}
  4.9,                                    ! Wind Speed {m/s}
  210,                                    ! Wind Direction {deg}
  0,                                      ! Sky Clearness
  0,                                      ! Rain Indicator
  0,                                      ! Snow Indicator
  21,                                     ! Day of Month
  7,                                      ! Month
  SummerDesignDay,                        ! Day Type
  0,                                      ! Daylight Saving Time Indicator
  Dewpoint,                               ! Humidity Indicating Type
  ,                                       ! Humidity Indicating Day Schedule Name
  DefaultMultipliers,                     ! Dry-Bulb Temperature Range Modifier Type
  ,                                       ! Dry-Bulb Temperature Range Modifier Schedule Name
  ASHRAETau,                              ! Solar Model Indicator
  ,                                       ! Beam Solar Day Schedule Name
  ,                                       ! Diffuse Solar Day Schedule Name
  0.44,                                   ! ASHRAE Taub {dimensionless}
  2.113;                                  ! ASHRAE Taud {dimensionless}

OS:ComponentData,
  {535c4b6f-2a59-4570-9902-e81e5e4dbb28}, ! Handle
  Component Data 1,                       ! Name
  {22a9a017-ba42-4431-a861-5dfd0882988a}, ! UUID
  {cbf46088-5da7-4460-997f-1f22bd2f717e}, ! Version UUID
  1366308539,                             ! Creation Timestamp
  1366308539,                             ! Version Timestamp
  {b304f0c8-31bb-4636-83ce-e6eb7672ce4b}; ! Name of Object 1

