
OS:Version,
  {da810ed4-42ec-4926-8384-390c285b6b8f}, ! Handle
  0.9.3;                                  ! Version Identifier

OS:SizingPeriod:DesignDay,
  {7faf03ae-9a4a-4346-9dea-67b9f8b00c56}, ! Handle
  BIRMINGHAM Ann Clg 2% Condns DB=>MWB,   ! Name
  32.5,                                   ! Maximum Dry-Bulb Temperature {C}
  10.3,                                   ! Daily Dry-Bulb Temperature Range {deltaC}
  23.6,                                   ! Humidity Indicating Conditions at Maximum Dry-Bulb {BasedOnField A3}
  99040,                                  ! Barometric Pressure {Pa}
  3.5,                                    ! Wind Speed {m/s}
  330,                                    ! Wind Direction {deg}
  0,                                      ! Sky Clearness
  0,                                      ! Rain Indicator
  0,                                      ! Snow Indicator
  21,                                     ! Day of Month
  7,                                      ! Month
  SummerDesignDay,                        ! Day Type
  0,                                      ! Daylight Saving Time Indicator
  Wetbulb,                                ! Humidity Indicating Type
  ,                                       ! Humidity Indicating Day Schedule Name
  DefaultMultipliers,                     ! Dry-Bulb Temperature Range Modifier Type
  ,                                       ! Dry-Bulb Temperature Range Modifier Schedule Name
  ASHRAETau,                              ! Solar Model Indicator
  ,                                       ! Beam Solar Day Schedule Name
  ,                                       ! Diffuse Solar Day Schedule Name
  0.583,                                  ! ASHRAE Taub {dimensionless}
  1.723;                                  ! ASHRAE Taud {dimensionless}

OS:ComponentData,
  {ed95f678-7d50-4072-9298-7332b441c49f}, ! Handle
  Component Data 1,                       ! Name
  {f4e1892a-31d9-4db5-b5ad-9961914968c3}, ! UUID
  {a1dd5d3a-8cf1-4329-9c6d-a8e82093df27}, ! Version UUID
  1366305639,                             ! Creation Timestamp
  1366305639,                             ! Version Timestamp
  {7faf03ae-9a4a-4346-9dea-67b9f8b00c56}; ! Name of Object 1

