
OS:Version,
  {78b7a257-dee9-4a7a-b616-9dcccdf645d7}, ! Handle
  0.9.3;                                  ! Version Identifier

OS:SizingPeriod:DesignDay,
  {4451d62b-9f7f-4ba3-aaa1-782e9ca424e1}, ! Handle
  Barbers Point Nas Ann Clg 1% Condns DB=>MWB, ! Name
  32.2,                                   ! Maximum Dry-Bulb Temperature {C}
  8.6,                                    ! Daily Dry-Bulb Temperature Range {deltaC}
  22.8,                                   ! Humidity Indicating Conditions at Maximum Dry-Bulb {BasedOnField A3}
  101145,                                 ! Barometric Pressure {Pa}
  5.1,                                    ! Wind Speed {m/s}
  60,                                     ! Wind Direction {deg}
  0,                                      ! Sky Clearness
  0,                                      ! Rain Indicator
  0,                                      ! Snow Indicator
  21,                                     ! Day of Month
  8,                                      ! Month
  SummerDesignDay,                        ! Day Type
  0,                                      ! Daylight Saving Time Indicator
  Wetbulb,                                ! Humidity Indicating Type
  ,                                       ! Humidity Indicating Day Schedule Name
  DefaultMultipliers,                     ! Dry-Bulb Temperature Range Modifier Type
  ,                                       ! Dry-Bulb Temperature Range Modifier Schedule Name
  ASHRAETau,                              ! Solar Model Indicator
  ,                                       ! Beam Solar Day Schedule Name
  ,                                       ! Diffuse Solar Day Schedule Name
  0.382,                                  ! ASHRAE Taub {dimensionless}
  2.522;                                  ! ASHRAE Taud {dimensionless}

OS:ComponentData,
  {bdb60a7b-0d49-4285-b54c-3ccd203568c8}, ! Handle
  Component Data 1,                       ! Name
  {bcb08b57-98a0-4d21-a9e3-af4703560b83}, ! UUID
  {bf84a383-4cae-4d81-a672-998b49acf128}, ! Version UUID
  1366307073,                             ! Creation Timestamp
  1366307073,                             ! Version Timestamp
  {4451d62b-9f7f-4ba3-aaa1-782e9ca424e1}; ! Name of Object 1

