
OS:Version,
  {01a0e781-086b-4b71-b47f-50521fe22a4b}, ! Handle
  0.9.3;                                  ! Version Identifier

OS:SizingPeriod:DesignDay,
  {5c129a28-ab07-45e6-8099-3d4c9a758293}, ! Handle
  Indianapolis Ann Htg 99% Condns DB,     ! Name
  -14.2,                                  ! Maximum Dry-Bulb Temperature {C}
  0,                                      ! Daily Dry-Bulb Temperature Range {deltaC}
  -14.2,                                  ! Humidity Indicating Conditions at Maximum Dry-Bulb {BasedOnField A3}
  98404,                                  ! Barometric Pressure {Pa}
  4.5,                                    ! Wind Speed {m/s}
  270,                                    ! Wind Direction {deg}
  0,                                      ! Sky Clearness
  0,                                      ! Rain Indicator
  0,                                      ! Snow Indicator
  21,                                     ! Day of Month
  1,                                      ! Month
  WinterDesignDay,                        ! Day Type
  0,                                      ! Daylight Saving Time Indicator
  Wetbulb,                                ! Humidity Indicating Type
  ,                                       ! Humidity Indicating Day Schedule Name
  DefaultMultipliers,                     ! Dry-Bulb Temperature Range Modifier Type
  ,                                       ! Dry-Bulb Temperature Range Modifier Schedule Name
  ASHRAEClearSky;                         ! Solar Model Indicator

OS:ComponentData,
  {5d5cf009-0442-4b17-bbf7-7e07f5deaddd}, ! Handle
  Component Data 1,                       ! Name
  {24163cf2-b5db-4c3b-a57a-678a0999fbd2}, ! UUID
  {a1fd779f-fe73-4e67-82b3-012b5147da69}, ! Version UUID
  1366307462,                             ! Creation Timestamp
  1366307462,                             ! Version Timestamp
  {5c129a28-ab07-45e6-8099-3d4c9a758293}; ! Name of Object 1

