
OS:Version,
  {e3df4cc1-1ba3-4d63-abf9-55269c23a636}, ! Handle
  0.9.3;                                  ! Version Identifier

OS:SizingPeriod:DesignDay,
  {b4e079a8-5ff5-46d6-9323-24f97d975096}, ! Handle
  JACKSONVILLE Ann Clg 1% Condns DP=>MDB, ! Name
  28.3,                                   ! Maximum Dry-Bulb Temperature {C}
  10,                                     ! Daily Dry-Bulb Temperature Range {deltaC}
  24.9,                                   ! Humidity Indicating Conditions at Maximum Dry-Bulb {BasedOnField A3}
  101217,                                 ! Barometric Pressure {Pa}
  3.6,                                    ! Wind Speed {m/s}
  260,                                    ! Wind Direction {deg}
  0,                                      ! Sky Clearness
  0,                                      ! Rain Indicator
  0,                                      ! Snow Indicator
  21,                                     ! Day of Month
  7,                                      ! Month
  SummerDesignDay,                        ! Day Type
  0,                                      ! Daylight Saving Time Indicator
  Dewpoint,                               ! Humidity Indicating Type
  ,                                       ! Humidity Indicating Day Schedule Name
  DefaultMultipliers,                     ! Dry-Bulb Temperature Range Modifier Type
  ,                                       ! Dry-Bulb Temperature Range Modifier Schedule Name
  ASHRAETau,                              ! Solar Model Indicator
  ,                                       ! Beam Solar Day Schedule Name
  ,                                       ! Diffuse Solar Day Schedule Name
  0.541,                                  ! ASHRAE Taub {dimensionless}
  1.863;                                  ! ASHRAE Taud {dimensionless}

OS:ComponentData,
  {5abd1c15-c616-48fa-a8d0-5de40e5fc20b}, ! Handle
  Component Data 1,                       ! Name
  {d8d0af1f-b4bb-42bc-918c-183b0c29546c}, ! UUID
  {4b9139f3-9428-4dab-bcc9-fea72f599d35}, ! Version UUID
  1366306817,                             ! Creation Timestamp
  1366306817,                             ! Version Timestamp
  {b4e079a8-5ff5-46d6-9323-24f97d975096}; ! Name of Object 1

