
OS:Version,
  {99369438-cb7f-452a-98d3-9f13ef7bdd03}, ! Handle
  0.9.3;                                  ! Version Identifier

OS:SizingPeriod:DesignDay,
  {b0900b52-af37-41fa-bd6a-b25338c4147f}, ! Handle
  Abington Ann Clg 1% Condns Enth=>MDB,   ! Name
  28.2,                                   ! Maximum Dry-Bulb Temperature {C}
  10.4,                                   ! Daily Dry-Bulb Temperature Range {deltaC}
  73100,                                  ! Humidity Indicating Conditions at Maximum Dry-Bulb {BasedOnField A3}
  93971,                                  ! Barometric Pressure {Pa}
  2.1,                                    ! Wind Speed {m/s}
  260,                                    ! Wind Direction {deg}
  0,                                      ! Sky Clearness
  0,                                      ! Rain Indicator
  0,                                      ! Snow Indicator
  21,                                     ! Day of Month
  7,                                      ! Month
  SummerDesignDay,                        ! Day Type
  0,                                      ! Daylight Saving Time Indicator
  Enthalpy,                               ! Humidity Indicating Type
  ,                                       ! Humidity Indicating Day Schedule Name
  DefaultMultipliers,                     ! Dry-Bulb Temperature Range Modifier Type
  ,                                       ! Dry-Bulb Temperature Range Modifier Schedule Name
  ASHRAETau,                              ! Solar Model Indicator
  ,                                       ! Beam Solar Day Schedule Name
  ,                                       ! Diffuse Solar Day Schedule Name
  0.515,                                  ! ASHRAE Taub {dimensionless}
  1.841;                                  ! ASHRAE Taud {dimensionless}

OS:ComponentData,
  {a97f2d13-16ad-4d20-b166-d104a40791a7}, ! Handle
  Component Data 1,                       ! Name
  {dd6fd7e4-4676-4028-b96e-231853b11086}, ! UUID
  {5c8e0b3c-d3c2-4ba6-a7eb-32c8d39c432a}, ! Version UUID
  1366311015,                             ! Creation Timestamp
  1366311015,                             ! Version Timestamp
  {b0900b52-af37-41fa-bd6a-b25338c4147f}; ! Name of Object 1

