
OS:Version,
  {4714f853-3484-4a3e-9d1c-090962c152a0}, ! Handle
  0.9.3;                                  ! Version Identifier

OS:SizingPeriod:DesignDay,
  {0c9196d7-193e-4d24-9ed3-8166f439e880}, ! Handle
  Cordova Ann Clg .4% Condns WB=>MDB,     ! Name
  20.3,                                   ! Maximum Dry-Bulb Temperature {C}
  7.2,                                    ! Daily Dry-Bulb Temperature Range {deltaC}
  16.1,                                   ! Humidity Indicating Conditions at Maximum Dry-Bulb {BasedOnField A3}
  101181,                                 ! Barometric Pressure {Pa}
  3,                                      ! Wind Speed {m/s}
  240,                                    ! Wind Direction {deg}
  0,                                      ! Sky Clearness
  0,                                      ! Rain Indicator
  0,                                      ! Snow Indicator
  21,                                     ! Day of Month
  7,                                      ! Month
  SummerDesignDay,                        ! Day Type
  0,                                      ! Daylight Saving Time Indicator
  Wetbulb,                                ! Humidity Indicating Type
  ,                                       ! Humidity Indicating Day Schedule Name
  DefaultMultipliers,                     ! Dry-Bulb Temperature Range Modifier Type
  ,                                       ! Dry-Bulb Temperature Range Modifier Schedule Name
  ASHRAETau,                              ! Solar Model Indicator
  ,                                       ! Beam Solar Day Schedule Name
  ,                                       ! Diffuse Solar Day Schedule Name
  0.388,                                  ! ASHRAE Taub {dimensionless}
  2.132;                                  ! ASHRAE Taud {dimensionless}

