
OS:Version,
  {80b9bf9e-5255-4054-afba-97275a0cb392}, ! Handle
  0.9.3;                                  ! Version Identifier

OS:SizingPeriod:DesignDay,
  {184efe1d-44f1-4e21-ba93-0ff93b37d1c7}, ! Handle
  Columbus Muni Ann Clg 1% Condns WB=>MDB, ! Name
  30.5,                                   ! Maximum Dry-Bulb Temperature {C}
  11.3,                                   ! Daily Dry-Bulb Temperature Range {deltaC}
  24.6,                                   ! Humidity Indicating Conditions at Maximum Dry-Bulb {BasedOnField A3}
  96023,                                  ! Barometric Pressure {Pa}
  5.4,                                    ! Wind Speed {m/s}
  180,                                    ! Wind Direction {deg}
  0,                                      ! Sky Clearness
  0,                                      ! Rain Indicator
  0,                                      ! Snow Indicator
  21,                                     ! Day of Month
  7,                                      ! Month
  SummerDesignDay,                        ! Day Type
  0,                                      ! Daylight Saving Time Indicator
  Wetbulb,                                ! Humidity Indicating Type
  ,                                       ! Humidity Indicating Day Schedule Name
  DefaultMultipliers,                     ! Dry-Bulb Temperature Range Modifier Type
  ,                                       ! Dry-Bulb Temperature Range Modifier Schedule Name
  ASHRAETau,                              ! Solar Model Indicator
  ,                                       ! Beam Solar Day Schedule Name
  ,                                       ! Diffuse Solar Day Schedule Name
  0.407,                                  ! ASHRAE Taub {dimensionless}
  2.237;                                  ! ASHRAE Taud {dimensionless}

OS:ComponentData,
  {e698e8e3-b075-4c7a-bb2c-8e6a482c573a}, ! Handle
  Component Data 1,                       ! Name
  {a0224744-e77a-47b8-83e7-6cae01d5005b}, ! UUID
  {51fb2e81-c08d-49e4-ba5e-eb1fe6eff5dc}, ! Version UUID
  1366309098,                             ! Creation Timestamp
  1366309098,                             ! Version Timestamp
  {184efe1d-44f1-4e21-ba93-0ff93b37d1c7}; ! Name of Object 1

