
OS:Version,
  {7bfac83a-aaee-4ab2-a758-8f217ffc40de}, ! Handle
  0.9.3;                                  ! Version Identifier

OS:SizingPeriod:DesignDay,
  {0171bfaa-7b6c-4b41-adc1-580097832f80}, ! Handle
  HUNTSVILLE Ann Hum_n 99.6% Condns DP=>MCDB, ! Name
  -5.5,                                   ! Maximum Dry-Bulb Temperature {C}
  0,                                      ! Daily Dry-Bulb Temperature Range {deltaC}
  -14.8,                                  ! Humidity Indicating Conditions at Maximum Dry-Bulb {BasedOnField A3}
  99063,                                  ! Barometric Pressure {Pa}
  3.8,                                    ! Wind Speed {m/s}
  340,                                    ! Wind Direction {deg}
  0,                                      ! Sky Clearness
  0,                                      ! Rain Indicator
  0,                                      ! Snow Indicator
  21,                                     ! Day of Month
  1,                                      ! Month
  WinterDesignDay,                        ! Day Type
  0,                                      ! Daylight Saving Time Indicator
  Dewpoint,                               ! Humidity Indicating Type
  ,                                       ! Humidity Indicating Day Schedule Name
  DefaultMultipliers,                     ! Dry-Bulb Temperature Range Modifier Type
  ,                                       ! Dry-Bulb Temperature Range Modifier Schedule Name
  ASHRAEClearSky;                         ! Solar Model Indicator

OS:ComponentData,
  {62f67c49-f86b-4779-aecc-425fa0163891}, ! Handle
  Component Data 1,                       ! Name
  {8094cb17-ec00-4905-81e2-f9ad366ac6de}, ! UUID
  {b15898fa-0514-4c57-83ef-6bb98630ee04}, ! Version UUID
  1366305666,                             ! Creation Timestamp
  1366305666,                             ! Version Timestamp
  {0171bfaa-7b6c-4b41-adc1-580097832f80}; ! Name of Object 1

