
OS:Version,
  {ea5413e0-4186-4ffe-97f7-2c53caa56ef9}, ! Handle
  0.9.3;                                  ! Version Identifier

OS:SizingPeriod:DesignDay,
  {0d9c6389-6513-458c-b6bf-d6d72994aacd}, ! Handle
  EL_PASO Ann Clg 1% Condns WB=>MDB,      ! Name
  29.6,                                   ! Maximum Dry-Bulb Temperature {C}
  13,                                     ! Daily Dry-Bulb Temperature Range {deltaC}
  20.7,                                   ! Humidity Indicating Conditions at Maximum Dry-Bulb {BasedOnField A3}
  87780,                                  ! Barometric Pressure {Pa}
  3.9,                                    ! Wind Speed {m/s}
  280,                                    ! Wind Direction {deg}
  0,                                      ! Sky Clearness
  0,                                      ! Rain Indicator
  0,                                      ! Snow Indicator
  21,                                     ! Day of Month
  7,                                      ! Month
  SummerDesignDay,                        ! Day Type
  0,                                      ! Daylight Saving Time Indicator
  Wetbulb,                                ! Humidity Indicating Type
  ,                                       ! Humidity Indicating Day Schedule Name
  DefaultMultipliers,                     ! Dry-Bulb Temperature Range Modifier Type
  ,                                       ! Dry-Bulb Temperature Range Modifier Schedule Name
  ASHRAETau,                              ! Solar Model Indicator
  ,                                       ! Beam Solar Day Schedule Name
  ,                                       ! Diffuse Solar Day Schedule Name
  0.605,                                  ! ASHRAE Taub {dimensionless}
  1.547;                                  ! ASHRAE Taud {dimensionless}

OS:ComponentData,
  {628d85e3-ff91-4305-b012-f05dc27156bb}, ! Handle
  Component Data 1,                       ! Name
  {a99248ad-51f8-4eed-adce-fd446bcfae8a}, ! UUID
  {db67c775-fd0b-4338-8b6b-7dd0af015afb}, ! Version UUID
  1366310684,                             ! Creation Timestamp
  1366310684,                             ! Version Timestamp
  {0d9c6389-6513-458c-b6bf-d6d72994aacd}; ! Name of Object 1

