
OS:Version,
  {9221bb9a-87f7-4995-a91e-a128ee9900e3}, ! Handle
  0.9.3;                                  ! Version Identifier

OS:SizingPeriod:DesignDay,
  {0443a3cc-72da-416d-a38b-76a11bdc9209}, ! Handle
  Boston Logan IntL Arpt Ann Clg .4% Condns WB=>MDB, ! Name
  30.2,                                   ! Maximum Dry-Bulb Temperature {C}
  8.4,                                    ! Daily Dry-Bulb Temperature Range {deltaC}
  24.6,                                   ! Humidity Indicating Conditions at Maximum Dry-Bulb {BasedOnField A3}
  101253,                                 ! Barometric Pressure {Pa}
  6.3,                                    ! Wind Speed {m/s}
  270,                                    ! Wind Direction {deg}
  0,                                      ! Sky Clearness
  0,                                      ! Rain Indicator
  0,                                      ! Snow Indicator
  21,                                     ! Day of Month
  7,                                      ! Month
  SummerDesignDay,                        ! Day Type
  0,                                      ! Daylight Saving Time Indicator
  Wetbulb,                                ! Humidity Indicating Type
  ,                                       ! Humidity Indicating Day Schedule Name
  DefaultMultipliers,                     ! Dry-Bulb Temperature Range Modifier Type
  ,                                       ! Dry-Bulb Temperature Range Modifier Schedule Name
  ASHRAETau,                              ! Solar Model Indicator
  ,                                       ! Beam Solar Day Schedule Name
  ,                                       ! Diffuse Solar Day Schedule Name
  0.488,                                  ! ASHRAE Taub {dimensionless}
  1.95;                                   ! ASHRAE Taud {dimensionless}

OS:ComponentData,
  {9d27264d-8b92-4284-8472-31bf715aa933}, ! Handle
  Component Data 1,                       ! Name
  {9959f6db-3823-4d12-8b0b-d7f3fd662b7d}, ! UUID
  {fdc3c550-c4f2-433f-8a61-47df0afc7fc7}, ! Version UUID
  1366307793,                             ! Creation Timestamp
  1366307793,                             ! Version Timestamp
  {0443a3cc-72da-416d-a38b-76a11bdc9209}; ! Name of Object 1

