
OS:Version,
  {5935bcc0-1474-4942-b722-17ef8c6d0886}, ! Handle
  0.9.3;                                  ! Version Identifier

OS:SizingPeriod:DesignDay,
  {fab745cc-eada-484d-b4be-65432f9ba026}, ! Handle
  Del Rio/Intl Ap Ann Clg 2% Condns DP=>MDB, ! Name
  27.3,                                   ! Maximum Dry-Bulb Temperature {C}
  11.4,                                   ! Daily Dry-Bulb Temperature Range {deltaC}
  22.5,                                   ! Humidity Indicating Conditions at Maximum Dry-Bulb {BasedOnField A3}
  97458,                                  ! Barometric Pressure {Pa}
  4.8,                                    ! Wind Speed {m/s}
  140,                                    ! Wind Direction {deg}
  0,                                      ! Sky Clearness
  0,                                      ! Rain Indicator
  0,                                      ! Snow Indicator
  21,                                     ! Day of Month
  7,                                      ! Month
  SummerDesignDay,                        ! Day Type
  0,                                      ! Daylight Saving Time Indicator
  Dewpoint,                               ! Humidity Indicating Type
  ,                                       ! Humidity Indicating Day Schedule Name
  DefaultMultipliers,                     ! Dry-Bulb Temperature Range Modifier Type
  ,                                       ! Dry-Bulb Temperature Range Modifier Schedule Name
  ASHRAETau,                              ! Solar Model Indicator
  ,                                       ! Beam Solar Day Schedule Name
  ,                                       ! Diffuse Solar Day Schedule Name
  0.48,                                   ! ASHRAE Taub {dimensionless}
  1.993;                                  ! ASHRAE Taud {dimensionless}

OS:ComponentData,
  {ece9733b-b33a-4630-9923-b49abfd89d80}, ! Handle
  Component Data 1,                       ! Name
  {3e3907fa-9523-49b8-8d26-8f28d545557f}, ! UUID
  {2dac5085-e15b-49a9-bce0-bc376b8f2ec3}, ! Version UUID
  1366310673,                             ! Creation Timestamp
  1366310673,                             ! Version Timestamp
  {fab745cc-eada-484d-b4be-65432f9ba026}; ! Name of Object 1

