
OS:Version,
  {413682f4-b33c-4f16-a09c-73bfca3b11cd}, ! Handle
  0.9.3;                                  ! Version Identifier

OS:SizingPeriod:DesignDay,
  {c246c685-3e34-4537-9d03-220a1b208976}, ! Handle
  Dickinson Municipal Ap Ann Clg 1% Condns WB=>MDB, ! Name
  27.8,                                   ! Maximum Dry-Bulb Temperature {C}
  14.4,                                   ! Daily Dry-Bulb Temperature Range {deltaC}
  20.7,                                   ! Humidity Indicating Conditions at Maximum Dry-Bulb {BasedOnField A3}
  92210,                                  ! Barometric Pressure {Pa}
  6.3,                                    ! Wind Speed {m/s}
  150,                                    ! Wind Direction {deg}
  0,                                      ! Sky Clearness
  0,                                      ! Rain Indicator
  0,                                      ! Snow Indicator
  21,                                     ! Day of Month
  7,                                      ! Month
  SummerDesignDay,                        ! Day Type
  0,                                      ! Daylight Saving Time Indicator
  Wetbulb,                                ! Humidity Indicating Type
  ,                                       ! Humidity Indicating Day Schedule Name
  DefaultMultipliers,                     ! Dry-Bulb Temperature Range Modifier Type
  ,                                       ! Dry-Bulb Temperature Range Modifier Schedule Name
  ASHRAETau,                              ! Solar Model Indicator
  ,                                       ! Beam Solar Day Schedule Name
  ,                                       ! Diffuse Solar Day Schedule Name
  0.38,                                   ! ASHRAE Taub {dimensionless}
  2.261;                                  ! ASHRAE Taud {dimensionless}

