
OS:Version,
  {3cd7d774-f212-4051-897a-ab3ee4840091}, ! Handle
  0.9.3;                                  ! Version Identifier

OS:SizingPeriod:DesignDay,
  {a757220e-1c59-45b1-b0dd-bc940fe4a3de}, ! Handle
  Albuquerque Intl Arpt  Isis Ann Clg 1% Condns Enth=>MDB, ! Name
  27.4,                                   ! Maximum Dry-Bulb Temperature {C}
  13.5,                                   ! Daily Dry-Bulb Temperature Range {deltaC}
  57400,                                  ! Humidity Indicating Conditions at Maximum Dry-Bulb {BasedOnField A3}
  83328,                                  ! Barometric Pressure {Pa}
  4.4,                                    ! Wind Speed {m/s}
  220,                                    ! Wind Direction {deg}
  0,                                      ! Sky Clearness
  0,                                      ! Rain Indicator
  0,                                      ! Snow Indicator
  21,                                     ! Day of Month
  7,                                      ! Month
  SummerDesignDay,                        ! Day Type
  0,                                      ! Daylight Saving Time Indicator
  Enthalpy,                               ! Humidity Indicating Type
  ,                                       ! Humidity Indicating Day Schedule Name
  DefaultMultipliers,                     ! Dry-Bulb Temperature Range Modifier Type
  ,                                       ! Dry-Bulb Temperature Range Modifier Schedule Name
  ASHRAETau,                              ! Solar Model Indicator
  ,                                       ! Beam Solar Day Schedule Name
  ,                                       ! Diffuse Solar Day Schedule Name
  0.463,                                  ! ASHRAE Taub {dimensionless}
  1.887;                                  ! ASHRAE Taud {dimensionless}

OS:ComponentData,
  {b72a9c0a-d6ee-4a30-8cdc-fabc0dda3d45}, ! Handle
  Component Data 1,                       ! Name
  {7b2eb49c-e1c1-4daf-9d2f-9539ad106b81}, ! UUID
  {16ea9967-c61b-474a-8167-702db645e985}, ! Version UUID
  1366309371,                             ! Creation Timestamp
  1366309371,                             ! Version Timestamp
  {a757220e-1c59-45b1-b0dd-bc940fe4a3de}; ! Name of Object 1

