
OS:Version,
  {8327c5bc-708f-46b7-b346-fc2576e7fa06}, ! Handle
  0.9.3;                                  ! Version Identifier

OS:SizingPeriod:DesignDay,
  {d737cace-bac7-4838-b7ba-1c045790a65f}, ! Handle
  Chula Vista Brown Field Naas Ann Htg Wind 99% Condns WS=>MCDB, ! Name
  17.6,                                   ! Maximum Dry-Bulb Temperature {C}
  0,                                      ! Daily Dry-Bulb Temperature Range {deltaC}
  17.6,                                   ! Humidity Indicating Conditions at Maximum Dry-Bulb {BasedOnField A3}
  99429,                                  ! Barometric Pressure {Pa}
  8.3,                                    ! Wind Speed {m/s}
  120,                                    ! Wind Direction {deg}
  0,                                      ! Sky Clearness
  0,                                      ! Rain Indicator
  0,                                      ! Snow Indicator
  21,                                     ! Day of Month
  12,                                     ! Month
  WinterDesignDay,                        ! Day Type
  0,                                      ! Daylight Saving Time Indicator
  Wetbulb,                                ! Humidity Indicating Type
  ,                                       ! Humidity Indicating Day Schedule Name
  DefaultMultipliers,                     ! Dry-Bulb Temperature Range Modifier Type
  ,                                       ! Dry-Bulb Temperature Range Modifier Schedule Name
  ASHRAEClearSky;                         ! Solar Model Indicator

OS:ComponentData,
  {31130f47-4dd5-4eba-8de7-59a4ea4f8b9a}, ! Handle
  Component Data 1,                       ! Name
  {80b0de1e-149a-47ce-b40c-019585243ca3}, ! UUID
  {703383f6-3b48-4eb7-b8a4-2ce86856fd1a}, ! Version UUID
  1366306409,                             ! Creation Timestamp
  1366306409,                             ! Version Timestamp
  {d737cace-bac7-4838-b7ba-1c045790a65f}; ! Name of Object 1

