
OS:Version,
  {e418ebac-13c5-4647-bce8-d86a36b2f372}, ! Handle
  0.9.3;                                  ! Version Identifier

OS:SizingPeriod:DesignDay,
  {a55dfef6-46d7-49b0-82b5-68213e179243}, ! Handle
  Barksdale Afb Ann Clg .4% Condns DP=>MDB, ! Name
  28.7,                                   ! Maximum Dry-Bulb Temperature {C}
  10.5,                                   ! Daily Dry-Bulb Temperature Range {deltaC}
  25.1,                                   ! Humidity Indicating Conditions at Maximum Dry-Bulb {BasedOnField A3}
  100678,                                 ! Barometric Pressure {Pa}
  2.6,                                    ! Wind Speed {m/s}
  180,                                    ! Wind Direction {deg}
  0,                                      ! Sky Clearness
  0,                                      ! Rain Indicator
  0,                                      ! Snow Indicator
  21,                                     ! Day of Month
  7,                                      ! Month
  SummerDesignDay,                        ! Day Type
  0,                                      ! Daylight Saving Time Indicator
  Dewpoint,                               ! Humidity Indicating Type
  ,                                       ! Humidity Indicating Day Schedule Name
  DefaultMultipliers,                     ! Dry-Bulb Temperature Range Modifier Type
  ,                                       ! Dry-Bulb Temperature Range Modifier Schedule Name
  ASHRAETau,                              ! Solar Model Indicator
  ,                                       ! Beam Solar Day Schedule Name
  ,                                       ! Diffuse Solar Day Schedule Name
  0.492,                                  ! ASHRAE Taub {dimensionless}
  2.007;                                  ! ASHRAE Taud {dimensionless}

OS:ComponentData,
  {7c25cb3e-8315-48a4-b15d-94d8f32defbd}, ! Handle
  Component Data 1,                       ! Name
  {7fef9bf1-9abd-4089-946a-71856baa5c24}, ! UUID
  {fd0f9b40-5472-4f88-ada5-d38c79409a07}, ! Version UUID
  1366307700,                             ! Creation Timestamp
  1366307700,                             ! Version Timestamp
  {a55dfef6-46d7-49b0-82b5-68213e179243}; ! Name of Object 1

