
OS:Version,
  {15277f5a-8a37-49f1-b7dd-9be46e850d84}, ! Handle
  0.9.3;                                  ! Version Identifier

OS:SizingPeriod:DesignDay,
  {cbdbc552-58a9-49b4-b04f-18bbc3cfb6da}, ! Handle
  LEXINGTON Ann Clg .4% Condns Enth=>MDB, ! Name
  30.7,                                   ! Maximum Dry-Bulb Temperature {C}
  10.2,                                   ! Daily Dry-Bulb Temperature Range {deltaC}
  78000,                                  ! Humidity Indicating Conditions at Maximum Dry-Bulb {BasedOnField A3}
  97761,                                  ! Barometric Pressure {Pa}
  3.7,                                    ! Wind Speed {m/s}
  250,                                    ! Wind Direction {deg}
  0,                                      ! Sky Clearness
  0,                                      ! Rain Indicator
  0,                                      ! Snow Indicator
  21,                                     ! Day of Month
  7,                                      ! Month
  SummerDesignDay,                        ! Day Type
  0,                                      ! Daylight Saving Time Indicator
  Enthalpy,                               ! Humidity Indicating Type
  ,                                       ! Humidity Indicating Day Schedule Name
  DefaultMultipliers,                     ! Dry-Bulb Temperature Range Modifier Type
  ,                                       ! Dry-Bulb Temperature Range Modifier Schedule Name
  ASHRAETau,                              ! Solar Model Indicator
  ,                                       ! Beam Solar Day Schedule Name
  ,                                       ! Diffuse Solar Day Schedule Name
  0.503,                                  ! ASHRAE Taub {dimensionless}
  1.885;                                  ! ASHRAE Taud {dimensionless}

OS:ComponentData,
  {67df5ddf-fcbe-4d84-b04d-b59edc8ec2fc}, ! Handle
  Component Data 1,                       ! Name
  {7e291e54-63c9-43ac-8895-cd79c106f3b2}, ! UUID
  {308367ff-28d0-4232-a2c0-2324066822b2}, ! Version UUID
  1366307657,                             ! Creation Timestamp
  1366307657,                             ! Version Timestamp
  {cbdbc552-58a9-49b4-b04f-18bbc3cfb6da}; ! Name of Object 1

