
OS:Version,
  {225f32db-24f4-4509-a8e8-d1fa8612dbb8}, ! Handle
  0.9.3;                                  ! Version Identifier

OS:SizingPeriod:DesignDay,
  {fe00acda-4040-4b08-aa1d-e289ff2fa062}, ! Handle
  Eau Claire Ann Clg .4% Condns DP=>MDB,  ! Name
  27.8,                                   ! Maximum Dry-Bulb Temperature {C}
  11.5,                                   ! Daily Dry-Bulb Temperature Range {deltaC}
  22.7,                                   ! Humidity Indicating Conditions at Maximum Dry-Bulb {BasedOnField A3}
  98053,                                  ! Barometric Pressure {Pa}
  5.2,                                    ! Wind Speed {m/s}
  190,                                    ! Wind Direction {deg}
  0,                                      ! Sky Clearness
  0,                                      ! Rain Indicator
  0,                                      ! Snow Indicator
  21,                                     ! Day of Month
  7,                                      ! Month
  SummerDesignDay,                        ! Day Type
  0,                                      ! Daylight Saving Time Indicator
  Dewpoint,                               ! Humidity Indicating Type
  ,                                       ! Humidity Indicating Day Schedule Name
  DefaultMultipliers,                     ! Dry-Bulb Temperature Range Modifier Type
  ,                                       ! Dry-Bulb Temperature Range Modifier Schedule Name
  ASHRAETau,                              ! Solar Model Indicator
  ,                                       ! Beam Solar Day Schedule Name
  ,                                       ! Diffuse Solar Day Schedule Name
  0.412,                                  ! ASHRAE Taub {dimensionless}
  2.189;                                  ! ASHRAE Taud {dimensionless}

OS:ComponentData,
  {49618ca4-52f6-4899-b7f0-9bfee34a6a6b}, ! Handle
  Component Data 1,                       ! Name
  {48a2faf1-515e-4ef0-a2d3-c602803d8641}, ! UUID
  {2c5fc402-a322-43d9-978d-3ab01284d903}, ! Version UUID
  1366311469,                             ! Creation Timestamp
  1366311469,                             ! Version Timestamp
  {fe00acda-4040-4b08-aa1d-e289ff2fa062}; ! Name of Object 1

