
OS:Version,
  {f97e7325-3079-4d1e-b14f-37c18acfbb43}, ! Handle
  0.9.3;                                  ! Version Identifier

OS:SizingPeriod:DesignDay,
  {724dd864-324d-4e4e-9b87-c4263c116741}, ! Handle
  Lexington Bluegrass Ap Ann Clg 2% Condns DP=>MDB, ! Name
  26.6,                                   ! Maximum Dry-Bulb Temperature {C}
  10.2,                                   ! Daily Dry-Bulb Temperature Range {deltaC}
  22.3,                                   ! Humidity Indicating Conditions at Maximum Dry-Bulb {BasedOnField A3}
  97843,                                  ! Barometric Pressure {Pa}
  3.7,                                    ! Wind Speed {m/s}
  250,                                    ! Wind Direction {deg}
  0,                                      ! Sky Clearness
  0,                                      ! Rain Indicator
  0,                                      ! Snow Indicator
  21,                                     ! Day of Month
  7,                                      ! Month
  SummerDesignDay,                        ! Day Type
  0,                                      ! Daylight Saving Time Indicator
  Dewpoint,                               ! Humidity Indicating Type
  ,                                       ! Humidity Indicating Day Schedule Name
  DefaultMultipliers,                     ! Dry-Bulb Temperature Range Modifier Type
  ,                                       ! Dry-Bulb Temperature Range Modifier Schedule Name
  ASHRAETau,                              ! Solar Model Indicator
  ,                                       ! Beam Solar Day Schedule Name
  ,                                       ! Diffuse Solar Day Schedule Name
  0.503,                                  ! ASHRAE Taub {dimensionless}
  1.885;                                  ! ASHRAE Taud {dimensionless}

OS:ComponentData,
  {9760691c-2c61-4eaa-922f-4f5ed25f2a0e}, ! Handle
  Component Data 1,                       ! Name
  {911f0aa2-5ffb-47d1-9265-7242f2154327}, ! UUID
  {ab1644a4-d659-4036-bd14-3589c6e80708}, ! Version UUID
  1366307653,                             ! Creation Timestamp
  1366307653,                             ! Version Timestamp
  {724dd864-324d-4e4e-9b87-c4263c116741}; ! Name of Object 1

