
OS:Version,
  {3a9f2305-d45f-47e4-a39c-db654eb51444}, ! Handle
  0.9.3;                                  ! Version Identifier

OS:SizingPeriod:DesignDay,
  {e80add34-4b4b-47e0-a831-db226b6f0b96}, ! Handle
  Flippin  Awos Ann Clg .4% Condns DP=>MDB, ! Name
  28.4,                                   ! Maximum Dry-Bulb Temperature {C}
  12,                                     ! Daily Dry-Bulb Temperature Range {deltaC}
  22.9,                                   ! Humidity Indicating Conditions at Maximum Dry-Bulb {BasedOnField A3}
  97190,                                  ! Barometric Pressure {Pa}
  2.6,                                    ! Wind Speed {m/s}
  210,                                    ! Wind Direction {deg}
  0,                                      ! Sky Clearness
  0,                                      ! Rain Indicator
  0,                                      ! Snow Indicator
  21,                                     ! Day of Month
  7,                                      ! Month
  SummerDesignDay,                        ! Day Type
  0,                                      ! Daylight Saving Time Indicator
  Dewpoint,                               ! Humidity Indicating Type
  ,                                       ! Humidity Indicating Day Schedule Name
  DefaultMultipliers,                     ! Dry-Bulb Temperature Range Modifier Type
  ,                                       ! Dry-Bulb Temperature Range Modifier Schedule Name
  ASHRAETau,                              ! Solar Model Indicator
  ,                                       ! Beam Solar Day Schedule Name
  ,                                       ! Diffuse Solar Day Schedule Name
  0.465,                                  ! ASHRAE Taub {dimensionless}
  2.04;                                   ! ASHRAE Taud {dimensionless}

OS:ComponentData,
  {7e8b6144-9036-4688-86ad-22212f03c703}, ! Handle
  Component Data 1,                       ! Name
  {c40f02b9-4218-4dde-a528-b13df0efe186}, ! UUID
  {f4a1b380-cf81-4885-90e3-c93fd48b0c8f}, ! Version UUID
  1366306203,                             ! Creation Timestamp
  1366306203,                             ! Version Timestamp
  {e80add34-4b4b-47e0-a831-db226b6f0b96}; ! Name of Object 1

