
OS:Version,
  {14996bd1-b207-4eac-aa20-b1168bca250d}, ! Handle
  0.9.3;                                  ! Version Identifier

OS:SizingPeriod:DesignDay,
  {96d19bac-e093-4379-9c7a-fee55e2ce315}, ! Handle
  BOISE Ann Clg 2% Condns WB=>MDB,        ! Name
  31.1,                                   ! Maximum Dry-Bulb Temperature {C}
  16.7,                                   ! Daily Dry-Bulb Temperature Range {deltaC}
  17.5,                                   ! Humidity Indicating Conditions at Maximum Dry-Bulb {BasedOnField A3}
  91257,                                  ! Barometric Pressure {Pa}
  4.2,                                    ! Wind Speed {m/s}
  330,                                    ! Wind Direction {deg}
  0,                                      ! Sky Clearness
  0,                                      ! Rain Indicator
  0,                                      ! Snow Indicator
  21,                                     ! Day of Month
  7,                                      ! Month
  SummerDesignDay,                        ! Day Type
  0,                                      ! Daylight Saving Time Indicator
  Wetbulb,                                ! Humidity Indicating Type
  ,                                       ! Humidity Indicating Day Schedule Name
  DefaultMultipliers,                     ! Dry-Bulb Temperature Range Modifier Type
  ,                                       ! Dry-Bulb Temperature Range Modifier Schedule Name
  ASHRAETau,                              ! Solar Model Indicator
  ,                                       ! Beam Solar Day Schedule Name
  ,                                       ! Diffuse Solar Day Schedule Name
  0.398,                                  ! ASHRAE Taub {dimensionless}
  2.125;                                  ! ASHRAE Taud {dimensionless}

OS:ComponentData,
  {fcf17a92-a937-49d6-9692-c5a58bafba2e}, ! Handle
  Component Data 1,                       ! Name
  {8962c0f2-3b47-4a8e-9d17-50c73daac7a3}, ! UUID
  {f3b96b8f-b59b-41d6-b0ba-3cd549ecb119}, ! Version UUID
  1366307262,                             ! Creation Timestamp
  1366307262,                             ! Version Timestamp
  {96d19bac-e093-4379-9c7a-fee55e2ce315}; ! Name of Object 1

