
OS:Version,
  {ad7e1141-deef-4762-9fb7-90b2eeeb2d7a}, ! Handle
  0.9.3;                                  ! Version Identifier

OS:SizingPeriod:DesignDay,
  {3faee7e2-8b6a-4f8b-8e9c-d885a6162491}, ! Handle
  Beckley Raleigh Co Mem Ap Ann Htg 99.6% Condns DB, ! Name
  -14.7,                                  ! Maximum Dry-Bulb Temperature {C}
  0,                                      ! Daily Dry-Bulb Temperature Range {deltaC}
  -14.7,                                  ! Humidity Indicating Conditions at Maximum Dry-Bulb {BasedOnField A3}
  92488,                                  ! Barometric Pressure {Pa}
  3.3,                                    ! Wind Speed {m/s}
  310,                                    ! Wind Direction {deg}
  0,                                      ! Sky Clearness
  0,                                      ! Rain Indicator
  0,                                      ! Snow Indicator
  21,                                     ! Day of Month
  1,                                      ! Month
  WinterDesignDay,                        ! Day Type
  0,                                      ! Daylight Saving Time Indicator
  Wetbulb,                                ! Humidity Indicating Type
  ,                                       ! Humidity Indicating Day Schedule Name
  DefaultMultipliers,                     ! Dry-Bulb Temperature Range Modifier Type
  ,                                       ! Dry-Bulb Temperature Range Modifier Schedule Name
  ASHRAEClearSky;                         ! Solar Model Indicator

OS:ComponentData,
  {fd481bd6-e31b-4c69-a011-ff614942205a}, ! Handle
  Component Data 1,                       ! Name
  {2702e75c-f1c8-42f3-82b8-c4d5978f1c22}, ! UUID
  {53390d4a-19db-4296-a186-867b597023b1}, ! Version UUID
  1366311607,                             ! Creation Timestamp
  1366311607,                             ! Version Timestamp
  {3faee7e2-8b6a-4f8b-8e9c-d885a6162491}; ! Name of Object 1

