
OS:Version,
  {1729be4b-3cd3-4885-9dc7-7dec75f5b734}, ! Handle
  0.9.3;                                  ! Version Identifier

OS:SizingPeriod:DesignDay,
  {0adf4074-f7ed-43c5-832e-2476bea0c6ce}, ! Handle
  ELKO Ann Clg 1% Condns DB=>MWB,         ! Name
  33.3,                                   ! Maximum Dry-Bulb Temperature {C}
  21.8,                                   ! Daily Dry-Bulb Temperature Range {deltaC}
  15.1,                                   ! Humidity Indicating Conditions at Maximum Dry-Bulb {BasedOnField A3}
  84069,                                  ! Barometric Pressure {Pa}
  4.1,                                    ! Wind Speed {m/s}
  240,                                    ! Wind Direction {deg}
  0,                                      ! Sky Clearness
  0,                                      ! Rain Indicator
  0,                                      ! Snow Indicator
  21,                                     ! Day of Month
  7,                                      ! Month
  SummerDesignDay,                        ! Day Type
  0,                                      ! Daylight Saving Time Indicator
  Wetbulb,                                ! Humidity Indicating Type
  ,                                       ! Humidity Indicating Day Schedule Name
  DefaultMultipliers,                     ! Dry-Bulb Temperature Range Modifier Type
  ,                                       ! Dry-Bulb Temperature Range Modifier Schedule Name
  ASHRAETau,                              ! Solar Model Indicator
  ,                                       ! Beam Solar Day Schedule Name
  ,                                       ! Diffuse Solar Day Schedule Name
  0.446,                                  ! ASHRAE Taub {dimensionless}
  1.888;                                  ! ASHRAE Taud {dimensionless}

OS:ComponentData,
  {c83d386f-f7d2-4075-9360-d656db611b6c}, ! Handle
  Component Data 1,                       ! Name
  {49b31ceb-0557-4449-894d-31e707247574}, ! UUID
  {d8f27e1a-ce03-4fb4-95be-5b8899b71400}, ! Version UUID
  1366309457,                             ! Creation Timestamp
  1366309457,                             ! Version Timestamp
  {0adf4074-f7ed-43c5-832e-2476bea0c6ce}; ! Name of Object 1

