
OS:Version,
  {bfa6edd6-32be-4d8a-b03b-5f1f630eac2c}, ! Handle
  0.9.3;                                  ! Version Identifier

OS:SizingPeriod:DesignDay,
  {cc87027c-2933-4ca2-bfeb-f2d806adee1a}, ! Handle
  Henderson City Ann Clg .4% Condns Enth=>MDB, ! Name
  32.5,                                   ! Maximum Dry-Bulb Temperature {C}
  10.9,                                   ! Daily Dry-Bulb Temperature Range {deltaC}
  82500,                                  ! Humidity Indicating Conditions at Maximum Dry-Bulb {BasedOnField A3}
  99927,                                  ! Barometric Pressure {Pa}
  3,                                      ! Wind Speed {m/s}
  210,                                    ! Wind Direction {deg}
  0,                                      ! Sky Clearness
  0,                                      ! Rain Indicator
  0,                                      ! Snow Indicator
  21,                                     ! Day of Month
  7,                                      ! Month
  SummerDesignDay,                        ! Day Type
  0,                                      ! Daylight Saving Time Indicator
  Enthalpy,                               ! Humidity Indicating Type
  ,                                       ! Humidity Indicating Day Schedule Name
  DefaultMultipliers,                     ! Dry-Bulb Temperature Range Modifier Type
  ,                                       ! Dry-Bulb Temperature Range Modifier Schedule Name
  ASHRAETau,                              ! Solar Model Indicator
  ,                                       ! Beam Solar Day Schedule Name
  ,                                       ! Diffuse Solar Day Schedule Name
  0.508,                                  ! ASHRAE Taub {dimensionless}
  1.886;                                  ! ASHRAE Taud {dimensionless}

OS:ComponentData,
  {aa982a49-4e57-4664-b401-d7b8541d7212}, ! Handle
  Component Data 1,                       ! Name
  {bdf8a8df-b56e-4614-9a8d-47da48f1ac75}, ! UUID
  {bbbf3d68-a446-44b3-97a3-d54d65518d9b}, ! Version UUID
  1366307640,                             ! Creation Timestamp
  1366307640,                             ! Version Timestamp
  {cc87027c-2933-4ca2-bfeb-f2d806adee1a}; ! Name of Object 1

