
OS:Version,
  {f08ea5e2-01e9-408b-a3a9-50f29e952636}, ! Handle
  0.9.3;                                  ! Version Identifier

OS:SizingPeriod:DesignDay,
  {98225d5b-d9ae-42ef-917d-d33319b5a06d}, ! Handle
  Houghton Lake Roscommon Co Ar Ann Clg .4% Condns DB=>MWB, ! Name
  30.5,                                   ! Maximum Dry-Bulb Temperature {C}
  12.8,                                   ! Daily Dry-Bulb Temperature Range {deltaC}
  21.8,                                   ! Humidity Indicating Conditions at Maximum Dry-Bulb {BasedOnField A3}
  97179,                                  ! Barometric Pressure {Pa}
  4.2,                                    ! Wind Speed {m/s}
  240,                                    ! Wind Direction {deg}
  0,                                      ! Sky Clearness
  0,                                      ! Rain Indicator
  0,                                      ! Snow Indicator
  21,                                     ! Day of Month
  7,                                      ! Month
  SummerDesignDay,                        ! Day Type
  0,                                      ! Daylight Saving Time Indicator
  Wetbulb,                                ! Humidity Indicating Type
  ,                                       ! Humidity Indicating Day Schedule Name
  DefaultMultipliers,                     ! Dry-Bulb Temperature Range Modifier Type
  ,                                       ! Dry-Bulb Temperature Range Modifier Schedule Name
  ASHRAETau,                              ! Solar Model Indicator
  ,                                       ! Beam Solar Day Schedule Name
  ,                                       ! Diffuse Solar Day Schedule Name
  0.413,                                  ! ASHRAE Taub {dimensionless}
  2.189;                                  ! ASHRAE Taud {dimensionless}

OS:ComponentData,
  {5e22391e-e5a7-42c3-b825-a75d55b69d8c}, ! Handle
  Component Data 1,                       ! Name
  {571ede61-4d51-4c46-a00d-c771b24b7959}, ! UUID
  {bb47fc58-d8b8-47e3-bb32-5c91d03c6ca6}, ! Version UUID
  1366308025,                             ! Creation Timestamp
  1366308025,                             ! Version Timestamp
  {98225d5b-d9ae-42ef-917d-d33319b5a06d}; ! Name of Object 1

