
OS:Version,
  {5c82d715-0e02-49c9-91d7-d544020e7657}, ! Handle
  0.9.3;                                  ! Version Identifier

OS:SizingPeriod:DesignDay,
  {810181c8-1e1e-4045-a848-237b7e1ac71a}, ! Handle
  King Salmon Arpt Ann Clg .4% Condns DP=>MDB, ! Name
  17.1,                                   ! Maximum Dry-Bulb Temperature {C}
  8.6,                                    ! Daily Dry-Bulb Temperature Range {deltaC}
  13.7,                                   ! Humidity Indicating Conditions at Maximum Dry-Bulb {BasedOnField A3}
  101145,                                 ! Barometric Pressure {Pa}
  4.8,                                    ! Wind Speed {m/s}
  270,                                    ! Wind Direction {deg}
  0,                                      ! Sky Clearness
  0,                                      ! Rain Indicator
  0,                                      ! Snow Indicator
  21,                                     ! Day of Month
  7,                                      ! Month
  SummerDesignDay,                        ! Day Type
  0,                                      ! Daylight Saving Time Indicator
  Dewpoint,                               ! Humidity Indicating Type
  ,                                       ! Humidity Indicating Day Schedule Name
  DefaultMultipliers,                     ! Dry-Bulb Temperature Range Modifier Type
  ,                                       ! Dry-Bulb Temperature Range Modifier Schedule Name
  ASHRAETau,                              ! Solar Model Indicator
  ,                                       ! Beam Solar Day Schedule Name
  ,                                       ! Diffuse Solar Day Schedule Name
  0.384,                                  ! ASHRAE Taub {dimensionless}
  2.227;                                  ! ASHRAE Taud {dimensionless}

OS:ComponentData,
  {2ecf1b8c-fc9c-4d1a-9f2a-1cdb4425e4e1}, ! Handle
  Component Data 1,                       ! Name
  {e8c5f194-0d98-47ad-818f-0b5442234d3f}, ! UUID
  {7e02825e-2ce2-428c-9d99-9ec95dfef1c9}, ! Version UUID
  1366305367,                             ! Creation Timestamp
  1366305367,                             ! Version Timestamp
  {810181c8-1e1e-4045-a848-237b7e1ac71a}; ! Name of Object 1

