
OS:Version,
  {5dc7fa36-7c33-46d0-9bc2-da90e2c760c4}, ! Handle
  0.9.3;                                  ! Version Identifier

OS:SizingPeriod:DesignDay,
  {b04581ba-8cef-47f8-b9bd-0800a85a8ec4}, ! Handle
  Alamosa San Luis Valley Rgnl Ann Clg 1% Condns Enth=>MDB, ! Name
  23.9,                                   ! Maximum Dry-Bulb Temperature {C}
  18.7,                                   ! Daily Dry-Bulb Temperature Range {deltaC}
  49400,                                  ! Humidity Indicating Conditions at Maximum Dry-Bulb {BasedOnField A3}
  76617,                                  ! Barometric Pressure {Pa}
  5,                                      ! Wind Speed {m/s}
  240,                                    ! Wind Direction {deg}
  0,                                      ! Sky Clearness
  0,                                      ! Rain Indicator
  0,                                      ! Snow Indicator
  21,                                     ! Day of Month
  7,                                      ! Month
  SummerDesignDay,                        ! Day Type
  0,                                      ! Daylight Saving Time Indicator
  Enthalpy,                               ! Humidity Indicating Type
  ,                                       ! Humidity Indicating Day Schedule Name
  DefaultMultipliers,                     ! Dry-Bulb Temperature Range Modifier Type
  ,                                       ! Dry-Bulb Temperature Range Modifier Schedule Name
  ASHRAETau,                              ! Solar Model Indicator
  ,                                       ! Beam Solar Day Schedule Name
  ,                                       ! Diffuse Solar Day Schedule Name
  0.422,                                  ! ASHRAE Taub {dimensionless}
  2;                                      ! ASHRAE Taud {dimensionless}

OS:ComponentData,
  {06dfe3a0-fa25-451e-8a7b-7b22424d93d9}, ! Handle
  Component Data 1,                       ! Name
  {1805101f-288a-4f3e-af0b-43e4b68d63a5}, ! UUID
  {a354f25e-58c5-4858-91cf-f02556afb18c}, ! Version UUID
  1366306649,                             ! Creation Timestamp
  1366306649,                             ! Version Timestamp
  {b04581ba-8cef-47f8-b9bd-0800a85a8ec4}; ! Name of Object 1

