
OS:Version,
  {1959779c-87e4-4bc2-ab6c-08d5f1ccf0f5}, ! Handle
  0.9.3;                                  ! Version Identifier

OS:SizingPeriod:DesignDay,
  {bc966d45-a57f-4afc-a5a0-a2784cab8210}, ! Handle
  Augusta Airport Ann Clg 1% Condns Enth=>MDB, ! Name
  26.6,                                   ! Maximum Dry-Bulb Temperature {C}
  10.1,                                   ! Daily Dry-Bulb Temperature Range {deltaC}
  64900,                                  ! Humidity Indicating Conditions at Maximum Dry-Bulb {BasedOnField A3}
  100046,                                 ! Barometric Pressure {Pa}
  4.6,                                    ! Wind Speed {m/s}
  240,                                    ! Wind Direction {deg}
  0,                                      ! Sky Clearness
  0,                                      ! Rain Indicator
  0,                                      ! Snow Indicator
  21,                                     ! Day of Month
  7,                                      ! Month
  SummerDesignDay,                        ! Day Type
  0,                                      ! Daylight Saving Time Indicator
  Enthalpy,                               ! Humidity Indicating Type
  ,                                       ! Humidity Indicating Day Schedule Name
  DefaultMultipliers,                     ! Dry-Bulb Temperature Range Modifier Type
  ,                                       ! Dry-Bulb Temperature Range Modifier Schedule Name
  ASHRAETau,                              ! Solar Model Indicator
  ,                                       ! Beam Solar Day Schedule Name
  ,                                       ! Diffuse Solar Day Schedule Name
  0.458,                                  ! ASHRAE Taub {dimensionless}
  2.009;                                  ! ASHRAE Taud {dimensionless}

OS:ComponentData,
  {a3651537-a679-4eea-9e36-d162b5c14e55}, ! Handle
  Component Data 1,                       ! Name
  {237af66e-421b-4f7b-a3f7-012a68fc5d26}, ! UUID
  {39538e2a-b43a-4301-93b0-903f40762fbb}, ! Version UUID
  1366307869,                             ! Creation Timestamp
  1366307869,                             ! Version Timestamp
  {bc966d45-a57f-4afc-a5a0-a2784cab8210}; ! Name of Object 1

