
OS:Version,
  {e9218e8c-bfe8-405f-919c-90a1d1e04d19}, ! Handle
  0.9.3;                                  ! Version Identifier

OS:SizingPeriod:DesignDay,
  {9ee379a6-ae7a-4601-b8f7-52e33a4c1026}, ! Handle
  Barbers Point Nas Ann Clg 2% Condns DB=>MWB, ! Name
  31.6,                                   ! Maximum Dry-Bulb Temperature {C}
  8.6,                                    ! Daily Dry-Bulb Temperature Range {deltaC}
  22.7,                                   ! Humidity Indicating Conditions at Maximum Dry-Bulb {BasedOnField A3}
  101145,                                 ! Barometric Pressure {Pa}
  5.1,                                    ! Wind Speed {m/s}
  60,                                     ! Wind Direction {deg}
  0,                                      ! Sky Clearness
  0,                                      ! Rain Indicator
  0,                                      ! Snow Indicator
  21,                                     ! Day of Month
  8,                                      ! Month
  SummerDesignDay,                        ! Day Type
  0,                                      ! Daylight Saving Time Indicator
  Wetbulb,                                ! Humidity Indicating Type
  ,                                       ! Humidity Indicating Day Schedule Name
  DefaultMultipliers,                     ! Dry-Bulb Temperature Range Modifier Type
  ,                                       ! Dry-Bulb Temperature Range Modifier Schedule Name
  ASHRAETau,                              ! Solar Model Indicator
  ,                                       ! Beam Solar Day Schedule Name
  ,                                       ! Diffuse Solar Day Schedule Name
  0.382,                                  ! ASHRAE Taub {dimensionless}
  2.522;                                  ! ASHRAE Taud {dimensionless}

OS:ComponentData,
  {368ac74f-5fc7-4b70-9a5e-cc63289fbe91}, ! Handle
  Component Data 1,                       ! Name
  {4270cb56-f29e-492f-9e1b-4a6fe7590575}, ! UUID
  {08d8173c-fb74-4be6-884e-c8355aab146c}, ! Version UUID
  1366307073,                             ! Creation Timestamp
  1366307073,                             ! Version Timestamp
  {9ee379a6-ae7a-4601-b8f7-52e33a4c1026}; ! Name of Object 1

