
OS:Version,
  {d37f256a-0ed8-4758-a6db-ab2e3c53d462}, ! Handle
  0.9.3;                                  ! Version Identifier

OS:SizingPeriod:DesignDay,
  {8b6e3bc3-b863-49d8-a3dd-dbe38e40cd5c}, ! Handle
  Edwards Afb Ann Hum_n 99.6% Condns DP=>MCDB, ! Name
  4.4,                                    ! Maximum Dry-Bulb Temperature {C}
  0,                                      ! Daily Dry-Bulb Temperature Range {deltaC}
  -17.4,                                  ! Humidity Indicating Conditions at Maximum Dry-Bulb {BasedOnField A3}
  93126,                                  ! Barometric Pressure {Pa}
  2.1,                                    ! Wind Speed {m/s}
  250,                                    ! Wind Direction {deg}
  0,                                      ! Sky Clearness
  0,                                      ! Rain Indicator
  0,                                      ! Snow Indicator
  21,                                     ! Day of Month
  12,                                     ! Month
  WinterDesignDay,                        ! Day Type
  0,                                      ! Daylight Saving Time Indicator
  Dewpoint,                               ! Humidity Indicating Type
  ,                                       ! Humidity Indicating Day Schedule Name
  DefaultMultipliers,                     ! Dry-Bulb Temperature Range Modifier Type
  ,                                       ! Dry-Bulb Temperature Range Modifier Schedule Name
  ASHRAEClearSky;                         ! Solar Model Indicator

OS:ComponentData,
  {6a45685f-5355-4592-81a9-e6a878ac67aa}, ! Handle
  Component Data 1,                       ! Name
  {7bc00d5d-e19e-4b47-b6d5-970a6a800805}, ! UUID
  {3c5f3383-5610-435e-9c6f-140f484bbe9d}, ! Version UUID
  1366306420,                             ! Creation Timestamp
  1366306420,                             ! Version Timestamp
  {8b6e3bc3-b863-49d8-a3dd-dbe38e40cd5c}; ! Name of Object 1

