
OS:Version,
  {6e8406c9-117e-46b9-a509-1542562f6bfa}, ! Handle
  0.9.3;                                  ! Version Identifier

OS:SizingPeriod:DesignDay,
  {1cad41ea-d53a-4ced-8f07-42b05e56b46d}, ! Handle
  FRESNO Ann Htg Wind 99.6% Condns WS=>MCDB, ! Name
  11.4,                                   ! Maximum Dry-Bulb Temperature {C}
  0,                                      ! Daily Dry-Bulb Temperature Range {deltaC}
  11.4,                                   ! Humidity Indicating Conditions at Maximum Dry-Bulb {BasedOnField A3}
  100129,                                 ! Barometric Pressure {Pa}
  8.6,                                    ! Wind Speed {m/s}
  80,                                     ! Wind Direction {deg}
  0,                                      ! Sky Clearness
  0,                                      ! Rain Indicator
  0,                                      ! Snow Indicator
  21,                                     ! Day of Month
  12,                                     ! Month
  WinterDesignDay,                        ! Day Type
  0,                                      ! Daylight Saving Time Indicator
  Wetbulb,                                ! Humidity Indicating Type
  ,                                       ! Humidity Indicating Day Schedule Name
  DefaultMultipliers,                     ! Dry-Bulb Temperature Range Modifier Type
  ,                                       ! Dry-Bulb Temperature Range Modifier Schedule Name
  ASHRAEClearSky;                         ! Solar Model Indicator

OS:ComponentData,
  {13cf3387-2b8c-4ae1-859c-dba0de0dcc41}, ! Handle
  Component Data 1,                       ! Name
  {c7dd16f0-0a6f-4373-bc1e-fdaec4aa23a3}, ! UUID
  {287cbac1-5128-4616-9d36-7fe9617d9407}, ! Version UUID
  1366306432,                             ! Creation Timestamp
  1366306432,                             ! Version Timestamp
  {1cad41ea-d53a-4ced-8f07-42b05e56b46d}; ! Name of Object 1

