
OS:Version,
  {14eaf1bf-3148-45f5-a5b9-5dcf79930ea4}, ! Handle
  0.9.3;                                  ! Version Identifier

OS:SizingPeriod:DesignDay,
  {c6d7eb25-1d27-4939-9e41-045cd63556d5}, ! Handle
  DULUTH Ann Clg 2% Condns DP=>MDB,       ! Name
  22.5,                                   ! Maximum Dry-Bulb Temperature {C}
  10.9,                                   ! Daily Dry-Bulb Temperature Range {deltaC}
  18.4,                                   ! Humidity Indicating Conditions at Maximum Dry-Bulb {BasedOnField A3}
  96242,                                  ! Barometric Pressure {Pa}
  5.2,                                    ! Wind Speed {m/s}
  220,                                    ! Wind Direction {deg}
  0,                                      ! Sky Clearness
  0,                                      ! Rain Indicator
  0,                                      ! Snow Indicator
  21,                                     ! Day of Month
  7,                                      ! Month
  SummerDesignDay,                        ! Day Type
  0,                                      ! Daylight Saving Time Indicator
  Dewpoint,                               ! Humidity Indicating Type
  ,                                       ! Humidity Indicating Day Schedule Name
  DefaultMultipliers,                     ! Dry-Bulb Temperature Range Modifier Type
  ,                                       ! Dry-Bulb Temperature Range Modifier Schedule Name
  ASHRAETau,                              ! Solar Model Indicator
  ,                                       ! Beam Solar Day Schedule Name
  ,                                       ! Diffuse Solar Day Schedule Name
  0.398,                                  ! ASHRAE Taub {dimensionless}
  2.218;                                  ! ASHRAE Taud {dimensionless}

OS:ComponentData,
  {8709b7f7-778b-4495-a732-f479746eedfb}, ! Handle
  Component Data 1,                       ! Name
  {89e5132a-6557-482f-80d1-cb0f158e5524}, ! UUID
  {f46683db-026a-4d23-a2dc-844ef75e09c3}, ! Version UUID
  1366308199,                             ! Creation Timestamp
  1366308199,                             ! Version Timestamp
  {c6d7eb25-1d27-4939-9e41-045cd63556d5}; ! Name of Object 1

