
OS:Version,
  {8bc4d6ea-d644-4b20-8768-b5cb48128d07}, ! Handle
  0.9.3;                                  ! Version Identifier

OS:SizingPeriod:DesignDay,
  {d1bb35ad-a8de-4096-a250-1b395d1e0c6f}, ! Handle
  Casper Natrona Co Intl Ap Ann Clg 1% Condns WB=>MDB, ! Name
  27.8,                                   ! Maximum Dry-Bulb Temperature {C}
  18.1,                                   ! Daily Dry-Bulb Temperature Range {deltaC}
  16.7,                                   ! Humidity Indicating Conditions at Maximum Dry-Bulb {BasedOnField A3}
  83246,                                  ! Barometric Pressure {Pa}
  5.5,                                    ! Wind Speed {m/s}
  230,                                    ! Wind Direction {deg}
  0,                                      ! Sky Clearness
  0,                                      ! Rain Indicator
  0,                                      ! Snow Indicator
  21,                                     ! Day of Month
  7,                                      ! Month
  SummerDesignDay,                        ! Day Type
  0,                                      ! Daylight Saving Time Indicator
  Wetbulb,                                ! Humidity Indicating Type
  ,                                       ! Humidity Indicating Day Schedule Name
  DefaultMultipliers,                     ! Dry-Bulb Temperature Range Modifier Type
  ,                                       ! Dry-Bulb Temperature Range Modifier Schedule Name
  ASHRAETau,                              ! Solar Model Indicator
  ,                                       ! Beam Solar Day Schedule Name
  ,                                       ! Diffuse Solar Day Schedule Name
  0.411,                                  ! ASHRAE Taub {dimensionless}
  2.017;                                  ! ASHRAE Taud {dimensionless}

OS:ComponentData,
  {1a9c604d-0baf-4925-8d15-92c9f3941437}, ! Handle
  Component Data 1,                       ! Name
  {a8cfcd8a-8f70-4bee-8d36-2cecd9bbf476}, ! UUID
  {c61f84b3-b3f8-41f2-844f-fbd692d7597c}, ! Version UUID
  1366311689,                             ! Creation Timestamp
  1366311689,                             ! Version Timestamp
  {d1bb35ad-a8de-4096-a250-1b395d1e0c6f}; ! Name of Object 1

