
OS:Version,
  {73283fee-e766-485b-86db-5950167e76a1}, ! Handle
  0.9.3;                                  ! Version Identifier

OS:SizingPeriod:DesignDay,
  {1166706c-7913-49b9-b0aa-7ba80c4866e2}, ! Handle
  LONG_BEACH Ann Clg 2% Condns Enth=>MDB, ! Name
  26.6,                                   ! Maximum Dry-Bulb Temperature {C}
  9.5,                                    ! Daily Dry-Bulb Temperature Range {deltaC}
  60600,                                  ! Humidity Indicating Conditions at Maximum Dry-Bulb {BasedOnField A3}
  101121,                                 ! Barometric Pressure {Pa}
  4.1,                                    ! Wind Speed {m/s}
  280,                                    ! Wind Direction {deg}
  0,                                      ! Sky Clearness
  0,                                      ! Rain Indicator
  0,                                      ! Snow Indicator
  21,                                     ! Day of Month
  8,                                      ! Month
  SummerDesignDay,                        ! Day Type
  0,                                      ! Daylight Saving Time Indicator
  Enthalpy,                               ! Humidity Indicating Type
  ,                                       ! Humidity Indicating Day Schedule Name
  DefaultMultipliers,                     ! Dry-Bulb Temperature Range Modifier Type
  ,                                       ! Dry-Bulb Temperature Range Modifier Schedule Name
  ASHRAETau,                              ! Solar Model Indicator
  ,                                       ! Beam Solar Day Schedule Name
  ,                                       ! Diffuse Solar Day Schedule Name
  0.45,                                   ! ASHRAE Taub {dimensionless}
  2.074;                                  ! ASHRAE Taud {dimensionless}

OS:ComponentData,
  {36e0965d-7c91-4021-813a-760bccd025e8}, ! Handle
  Component Data 1,                       ! Name
  {ae7fd25a-e53d-4376-bd87-1426e7626658}, ! UUID
  {b34fcab0-aa28-4d36-9c78-7740b7247781}, ! Version UUID
  1366306476,                             ! Creation Timestamp
  1366306476,                             ! Version Timestamp
  {1166706c-7913-49b9-b0aa-7ba80c4866e2}; ! Name of Object 1

