
OS:Version,
  {f173ffd6-f5f8-4720-8296-bed892e4c490}, ! Handle
  0.9.3;                                  ! Version Identifier

OS:SizingPeriod:DesignDay,
  {f6074197-9893-4fa2-997c-3c36953c1ff6}, ! Handle
  Liberal Muni Ann Htg Wind 99% Condns WS=>MCDB, ! Name
  4.2,                                    ! Maximum Dry-Bulb Temperature {C}
  0,                                      ! Daily Dry-Bulb Temperature Range {deltaC}
  4.2,                                    ! Humidity Indicating Conditions at Maximum Dry-Bulb {BasedOnField A3}
  90959,                                  ! Barometric Pressure {Pa}
  13.5,                                   ! Wind Speed {m/s}
  10,                                     ! Wind Direction {deg}
  0,                                      ! Sky Clearness
  0,                                      ! Rain Indicator
  0,                                      ! Snow Indicator
  21,                                     ! Day of Month
  1,                                      ! Month
  WinterDesignDay,                        ! Day Type
  0,                                      ! Daylight Saving Time Indicator
  Wetbulb,                                ! Humidity Indicating Type
  ,                                       ! Humidity Indicating Day Schedule Name
  DefaultMultipliers,                     ! Dry-Bulb Temperature Range Modifier Type
  ,                                       ! Dry-Bulb Temperature Range Modifier Schedule Name
  ASHRAEClearSky;                         ! Solar Model Indicator

OS:ComponentData,
  {2dc9e222-f833-4882-aaf1-df643d8e3f89}, ! Handle
  Component Data 1,                       ! Name
  {31c27ff4-71ba-4a5b-9bad-acade6f32019}, ! UUID
  {f99adf9f-c85f-4007-ab5b-6ea6f35cabdc}, ! Version UUID
  1366307554,                             ! Creation Timestamp
  1366307554,                             ! Version Timestamp
  {f6074197-9893-4fa2-997c-3c36953c1ff6}; ! Name of Object 1

