
OS:Version,
  {6984f74b-43de-4d24-89ae-218266ceee87}, ! Handle
  0.9.3;                                  ! Version Identifier

OS:SizingPeriod:DesignDay,
  {117b2ae4-2f02-4dbe-983c-0f55d981f78e}, ! Handle
  Astoria Ann Hum_n 99.6% Condns DP=>MCDB, ! Name
  0.4,                                    ! Maximum Dry-Bulb Temperature {C}
  0,                                      ! Daily Dry-Bulb Temperature Range {deltaC}
  -8.6,                                   ! Humidity Indicating Conditions at Maximum Dry-Bulb {BasedOnField A3}
  101241,                                 ! Barometric Pressure {Pa}
  3.4,                                    ! Wind Speed {m/s}
  90,                                     ! Wind Direction {deg}
  0,                                      ! Sky Clearness
  0,                                      ! Rain Indicator
  0,                                      ! Snow Indicator
  21,                                     ! Day of Month
  12,                                     ! Month
  WinterDesignDay,                        ! Day Type
  0,                                      ! Daylight Saving Time Indicator
  Dewpoint,                               ! Humidity Indicating Type
  ,                                       ! Humidity Indicating Day Schedule Name
  DefaultMultipliers,                     ! Dry-Bulb Temperature Range Modifier Type
  ,                                       ! Dry-Bulb Temperature Range Modifier Schedule Name
  ASHRAEClearSky;                         ! Solar Model Indicator

OS:ComponentData,
  {8a340fae-5168-40f1-863e-eeed77146eb7}, ! Handle
  Component Data 1,                       ! Name
  {5e61fdea-1fa8-442d-9b87-80c281a25f4b}, ! UUID
  {ea991542-bc01-478c-8b06-c280f7d59ced}, ! Version UUID
  1366309971,                             ! Creation Timestamp
  1366309971,                             ! Version Timestamp
  {117b2ae4-2f02-4dbe-983c-0f55d981f78e}; ! Name of Object 1

