
OS:Version,
  {311defe1-9584-4e53-bf3b-fb02a8e07f61}, ! Handle
  0.9.3;                                  ! Version Identifier

OS:SizingPeriod:DesignDay,
  {2faf9406-c16a-4f7f-8a9d-c17b7520d81b}, ! Handle
  Iliamna Arpt Ann Clg 2% Condns DP=>MDB, ! Name
  14.9,                                   ! Maximum Dry-Bulb Temperature {C}
  7,                                      ! Daily Dry-Bulb Temperature Range {deltaC}
  11.6,                                   ! Humidity Indicating Conditions at Maximum Dry-Bulb {BasedOnField A3}
  100642,                                 ! Barometric Pressure {Pa}
  4.3,                                    ! Wind Speed {m/s}
  210,                                    ! Wind Direction {deg}
  0,                                      ! Sky Clearness
  0,                                      ! Rain Indicator
  0,                                      ! Snow Indicator
  21,                                     ! Day of Month
  7,                                      ! Month
  SummerDesignDay,                        ! Day Type
  0,                                      ! Daylight Saving Time Indicator
  Dewpoint,                               ! Humidity Indicating Type
  ,                                       ! Humidity Indicating Day Schedule Name
  DefaultMultipliers,                     ! Dry-Bulb Temperature Range Modifier Type
  ,                                       ! Dry-Bulb Temperature Range Modifier Schedule Name
  ASHRAETau,                              ! Solar Model Indicator
  ,                                       ! Beam Solar Day Schedule Name
  ,                                       ! Diffuse Solar Day Schedule Name
  0.384,                                  ! ASHRAE Taub {dimensionless}
  2.215;                                  ! ASHRAE Taud {dimensionless}

OS:ComponentData,
  {e1c6c443-d2ca-4bb4-80a0-9264ba5ee9fe}, ! Handle
  Component Data 1,                       ! Name
  {52ddebf8-db53-4f63-9343-8e38fd6431e2}, ! UUID
  {63aa2218-6394-4bd3-8d52-64940807d2ef}, ! Version UUID
  1366305326,                             ! Creation Timestamp
  1366305326,                             ! Version Timestamp
  {2faf9406-c16a-4f7f-8a9d-c17b7520d81b}; ! Name of Object 1

