
OS:Version,
  {a33f3716-b4fe-4244-b732-290ccfcc7e6e}, ! Handle
  0.9.3;                                  ! Version Identifier

OS:SizingPeriod:DesignDay,
  {800c688b-4b49-4413-80be-b74fbf3efbe9}, ! Handle
  Knoxville Mcghee Tyson Ap Ann Htg 99% Condns DB, ! Name
  -6.6,                                   ! Maximum Dry-Bulb Temperature {C}
  0,                                      ! Daily Dry-Bulb Temperature Range {deltaC}
  -6.6,                                   ! Humidity Indicating Conditions at Maximum Dry-Bulb {BasedOnField A3}
  97854,                                  ! Barometric Pressure {Pa}
  2.8,                                    ! Wind Speed {m/s}
  20,                                     ! Wind Direction {deg}
  0,                                      ! Sky Clearness
  0,                                      ! Rain Indicator
  0,                                      ! Snow Indicator
  21,                                     ! Day of Month
  1,                                      ! Month
  WinterDesignDay,                        ! Day Type
  0,                                      ! Daylight Saving Time Indicator
  Wetbulb,                                ! Humidity Indicating Type
  ,                                       ! Humidity Indicating Day Schedule Name
  DefaultMultipliers,                     ! Dry-Bulb Temperature Range Modifier Type
  ,                                       ! Dry-Bulb Temperature Range Modifier Schedule Name
  ASHRAEClearSky;                         ! Solar Model Indicator

OS:ComponentData,
  {73f1a959-b4ed-4dcf-ba7f-bec7af8cfbfd}, ! Handle
  Component Data 1,                       ! Name
  {636e3a9e-589c-43e5-946c-217731a72afc}, ! UUID
  {93bff8f2-cb88-4096-b406-c82702c84cb5}, ! Version UUID
  1366310512,                             ! Creation Timestamp
  1366310512,                             ! Version Timestamp
  {800c688b-4b49-4413-80be-b74fbf3efbe9}; ! Name of Object 1

