
OS:Version,
  {7e75a058-4ea9-4dc1-a767-36f8aefe013d}, ! Handle
  0.9.3;                                  ! Version Identifier

OS:SizingPeriod:DesignDay,
  {b2b38a02-fcbc-402c-92ee-be9058dc2f38}, ! Handle
  FLINT Ann Clg 1% Condns DB=>MWB,        ! Name
  30.3,                                   ! Maximum Dry-Bulb Temperature {C}
  11.7,                                   ! Daily Dry-Bulb Temperature Range {deltaC}
  22.3,                                   ! Humidity Indicating Conditions at Maximum Dry-Bulb {BasedOnField A3}
  98557,                                  ! Barometric Pressure {Pa}
  5.3,                                    ! Wind Speed {m/s}
  250,                                    ! Wind Direction {deg}
  0,                                      ! Sky Clearness
  0,                                      ! Rain Indicator
  0,                                      ! Snow Indicator
  21,                                     ! Day of Month
  7,                                      ! Month
  SummerDesignDay,                        ! Day Type
  0,                                      ! Daylight Saving Time Indicator
  Wetbulb,                                ! Humidity Indicating Type
  ,                                       ! Humidity Indicating Day Schedule Name
  DefaultMultipliers,                     ! Dry-Bulb Temperature Range Modifier Type
  ,                                       ! Dry-Bulb Temperature Range Modifier Schedule Name
  ASHRAETau,                              ! Solar Model Indicator
  ,                                       ! Beam Solar Day Schedule Name
  ,                                       ! Diffuse Solar Day Schedule Name
  0.449,                                  ! ASHRAE Taub {dimensionless}
  2.044;                                  ! ASHRAE Taud {dimensionless}

OS:ComponentData,
  {b0139db3-5658-4785-8dd5-0cabbacd3262}, ! Handle
  Component Data 1,                       ! Name
  {63a7f8a9-f44c-46a7-a42c-de1386aa836a}, ! UUID
  {642454c0-9f54-4b31-9c43-a747a003b185}, ! Version UUID
  1366308003,                             ! Creation Timestamp
  1366308003,                             ! Version Timestamp
  {b2b38a02-fcbc-402c-92ee-be9058dc2f38}; ! Name of Object 1

