
OS:Version,
  {768bdc19-d84a-4e78-a19a-33186a35bf44}, ! Handle
  0.9.3;                                  ! Version Identifier

OS:SizingPeriod:DesignDay,
  {3c517325-7804-43e1-ac81-ca51f4fad581}, ! Handle
  Goldsboro Seymour Johnson Afb Ann Clg 1% Condns WB=>MDB, ! Name
  31.3,                                   ! Maximum Dry-Bulb Temperature {C}
  10,                                     ! Daily Dry-Bulb Temperature Range {deltaC}
  25.9,                                   ! Humidity Indicating Conditions at Maximum Dry-Bulb {BasedOnField A3}
  100929,                                 ! Barometric Pressure {Pa}
  3.5,                                    ! Wind Speed {m/s}
  230,                                    ! Wind Direction {deg}
  0,                                      ! Sky Clearness
  0,                                      ! Rain Indicator
  0,                                      ! Snow Indicator
  21,                                     ! Day of Month
  7,                                      ! Month
  SummerDesignDay,                        ! Day Type
  0,                                      ! Daylight Saving Time Indicator
  Wetbulb,                                ! Humidity Indicating Type
  ,                                       ! Humidity Indicating Day Schedule Name
  DefaultMultipliers,                     ! Dry-Bulb Temperature Range Modifier Type
  ,                                       ! Dry-Bulb Temperature Range Modifier Schedule Name
  ASHRAETau,                              ! Solar Model Indicator
  ,                                       ! Beam Solar Day Schedule Name
  ,                                       ! Diffuse Solar Day Schedule Name
  0.598,                                  ! ASHRAE Taub {dimensionless}
  1.681;                                  ! ASHRAE Taud {dimensionless}

OS:ComponentData,
  {374b5164-8870-4f06-aa39-4aa0f7ddf4a5}, ! Handle
  Component Data 1,                       ! Name
  {93b62756-b419-45c7-b1df-6b4bda1b0b20}, ! UUID
  {ae4bfe36-0180-4786-92c7-475fbae8cba2}, ! Version UUID
  1366308924,                             ! Creation Timestamp
  1366308924,                             ! Version Timestamp
  {3c517325-7804-43e1-ac81-ca51f4fad581}; ! Name of Object 1

