
OS:Version,
  {9b9f4ebe-268b-4218-a323-4ea360fdf2d5}, ! Handle
  0.9.3;                                  ! Version Identifier

OS:SizingPeriod:DesignDay,
  {8d408498-ab1b-4c3f-84f1-9018a06ab251}, ! Handle
  CUT_BANK Ann Clg .4% Condns WB=>MDB,    ! Name
  28,                                     ! Maximum Dry-Bulb Temperature {C}
  15.1,                                   ! Daily Dry-Bulb Temperature Range {deltaC}
  16.8,                                   ! Humidity Indicating Conditions at Maximum Dry-Bulb {BasedOnField A3}
  88037,                                  ! Barometric Pressure {Pa}
  5.8,                                    ! Wind Speed {m/s}
  260,                                    ! Wind Direction {deg}
  0,                                      ! Sky Clearness
  0,                                      ! Rain Indicator
  0,                                      ! Snow Indicator
  21,                                     ! Day of Month
  7,                                      ! Month
  SummerDesignDay,                        ! Day Type
  0,                                      ! Daylight Saving Time Indicator
  Wetbulb,                                ! Humidity Indicating Type
  ,                                       ! Humidity Indicating Day Schedule Name
  DefaultMultipliers,                     ! Dry-Bulb Temperature Range Modifier Type
  ,                                       ! Dry-Bulb Temperature Range Modifier Schedule Name
  ASHRAETau,                              ! Solar Model Indicator
  ,                                       ! Beam Solar Day Schedule Name
  ,                                       ! Diffuse Solar Day Schedule Name
  0.368,                                  ! ASHRAE Taub {dimensionless}
  2.249;                                  ! ASHRAE Taud {dimensionless}

OS:ComponentData,
  {adb2710d-a4d4-4c1b-a541-3474536a1680}, ! Handle
  Component Data 1,                       ! Name
  {4cf05200-ff4c-47bb-a01f-682b7511b6e1}, ! UUID
  {eb2a2a8f-b18a-4b5d-b0b1-e82ce29b46ca}, ! Version UUID
  1366308735,                             ! Creation Timestamp
  1366308735,                             ! Version Timestamp
  {8d408498-ab1b-4c3f-84f1-9018a06ab251}; ! Name of Object 1

