
OS:Version,
  {eadbb6f4-da16-4eb4-9e12-53f44c6ee082}, ! Handle
  0.9.3;                                  ! Version Identifier

OS:SizingPeriod:DesignDay,
  {c4a65bd9-493e-4c1f-89f2-3fdc8eb71429}, ! Handle
  Greer GreenvL Spartanbrg Ap Ann Clg 2% Condns WB=>MDB, ! Name
  29.3,                                   ! Maximum Dry-Bulb Temperature {C}
  10.6,                                   ! Daily Dry-Bulb Temperature Range {deltaC}
  24,                                     ! Humidity Indicating Conditions at Maximum Dry-Bulb {BasedOnField A3}
  97866,                                  ! Barometric Pressure {Pa}
  3.6,                                    ! Wind Speed {m/s}
  230,                                    ! Wind Direction {deg}
  0,                                      ! Sky Clearness
  0,                                      ! Rain Indicator
  0,                                      ! Snow Indicator
  21,                                     ! Day of Month
  7,                                      ! Month
  SummerDesignDay,                        ! Day Type
  0,                                      ! Daylight Saving Time Indicator
  Wetbulb,                                ! Humidity Indicating Type
  ,                                       ! Humidity Indicating Day Schedule Name
  DefaultMultipliers,                     ! Dry-Bulb Temperature Range Modifier Type
  ,                                       ! Dry-Bulb Temperature Range Modifier Schedule Name
  ASHRAETau,                              ! Solar Model Indicator
  ,                                       ! Beam Solar Day Schedule Name
  ,                                       ! Diffuse Solar Day Schedule Name
  0.545,                                  ! ASHRAE Taub {dimensionless}
  1.796;                                  ! ASHRAE Taud {dimensionless}

OS:ComponentData,
  {e3e49235-363c-4f5c-93a9-08f9e15c29c8}, ! Handle
  Component Data 1,                       ! Name
  {85c51b6d-6083-45ae-ac80-0315defbfda9}, ! UUID
  {2173bc64-fa90-422c-a5c6-675c9c773b70}, ! Version UUID
  1366310369,                             ! Creation Timestamp
  1366310369,                             ! Version Timestamp
  {c4a65bd9-493e-4c1f-89f2-3fdc8eb71429}; ! Name of Object 1

