
OS:Version,
  {f153ca8b-f342-4189-81f1-14eb8826e2a4}, ! Handle
  0.9.3;                                  ! Version Identifier

OS:SizingPeriod:DesignDay,
  {1500d29c-b156-4e4c-84b7-367aeabf5e92}, ! Handle
  FORT_WAYNE Ann Htg 99.6% Condns DB,     ! Name
  -19.2,                                  ! Maximum Dry-Bulb Temperature {C}
  0,                                      ! Daily Dry-Bulb Temperature Range {deltaC}
  -19.2,                                  ! Humidity Indicating Conditions at Maximum Dry-Bulb {BasedOnField A3}
  98334,                                  ! Barometric Pressure {Pa}
  4.6,                                    ! Wind Speed {m/s}
  260,                                    ! Wind Direction {deg}
  0,                                      ! Sky Clearness
  0,                                      ! Rain Indicator
  0,                                      ! Snow Indicator
  21,                                     ! Day of Month
  1,                                      ! Month
  WinterDesignDay,                        ! Day Type
  0,                                      ! Daylight Saving Time Indicator
  Wetbulb,                                ! Humidity Indicating Type
  ,                                       ! Humidity Indicating Day Schedule Name
  DefaultMultipliers,                     ! Dry-Bulb Temperature Range Modifier Type
  ,                                       ! Dry-Bulb Temperature Range Modifier Schedule Name
  ASHRAEClearSky;                         ! Solar Model Indicator

OS:ComponentData,
  {3fa9e23c-66c6-46b2-b0b1-026977e54b13}, ! Handle
  Component Data 1,                       ! Name
  {e9c12407-6d95-4a09-a5c0-44fc191175f1}, ! UUID
  {416159b3-e8f9-469d-84de-7cfe4eced92b}, ! Version UUID
  1366307436,                             ! Creation Timestamp
  1366307436,                             ! Version Timestamp
  {1500d29c-b156-4e4c-84b7-367aeabf5e92}; ! Name of Object 1

