
OS:Version,
  {9fb95a06-84c5-4830-9387-2b6d5736b743}, ! Handle
  0.9.3;                                  ! Version Identifier

OS:SizingPeriod:DesignDay,
  {108f4eff-1b1d-4a3d-8ed5-13b6e0efae66}, ! Handle
  Allentown Ann Clg .4% Condns Enth=>MDB, ! Name
  30.2,                                   ! Maximum Dry-Bulb Temperature {C}
  10.7,                                   ! Daily Dry-Bulb Temperature Range {deltaC}
  75700,                                  ! Humidity Indicating Conditions at Maximum Dry-Bulb {BasedOnField A3}
  99927,                                  ! Barometric Pressure {Pa}
  4.6,                                    ! Wind Speed {m/s}
  240,                                    ! Wind Direction {deg}
  0,                                      ! Sky Clearness
  0,                                      ! Rain Indicator
  0,                                      ! Snow Indicator
  21,                                     ! Day of Month
  7,                                      ! Month
  SummerDesignDay,                        ! Day Type
  0,                                      ! Daylight Saving Time Indicator
  Enthalpy,                               ! Humidity Indicating Type
  ,                                       ! Humidity Indicating Day Schedule Name
  DefaultMultipliers,                     ! Dry-Bulb Temperature Range Modifier Type
  ,                                       ! Dry-Bulb Temperature Range Modifier Schedule Name
  ASHRAETau,                              ! Solar Model Indicator
  ,                                       ! Beam Solar Day Schedule Name
  ,                                       ! Diffuse Solar Day Schedule Name
  0.504,                                  ! ASHRAE Taub {dimensionless}
  1.885;                                  ! ASHRAE Taud {dimensionless}

OS:ComponentData,
  {d30964f2-2b60-4e55-b60a-2e0dd6e925d4}, ! Handle
  Component Data 1,                       ! Name
  {37305c3a-4b5c-481b-9872-b0af2dbbd310}, ! UUID
  {7a2a3a6e-463a-4d4c-bd50-0584bffb3af8}, ! Version UUID
  1366310128,                             ! Creation Timestamp
  1366310128,                             ! Version Timestamp
  {108f4eff-1b1d-4a3d-8ed5-13b6e0efae66}; ! Name of Object 1

