
OS:Version,
  {c0cc68d5-f218-4b68-a37d-406c0bc80d05}, ! Handle
  0.9.3;                                  ! Version Identifier

OS:SizingPeriod:DesignDay,
  {52138916-ca5d-42c8-b918-153f00e94682}, ! Handle
  Ely Yelland Field Ann Clg 1% Condns DP=>MDB, ! Name
  17.6,                                   ! Maximum Dry-Bulb Temperature {C}
  20.3,                                   ! Daily Dry-Bulb Temperature Range {deltaC}
  11.7,                                   ! Humidity Indicating Conditions at Maximum Dry-Bulb {BasedOnField A3}
  80397,                                  ! Barometric Pressure {Pa}
  5.3,                                    ! Wind Speed {m/s}
  220,                                    ! Wind Direction {deg}
  0,                                      ! Sky Clearness
  0,                                      ! Rain Indicator
  0,                                      ! Snow Indicator
  21,                                     ! Day of Month
  7,                                      ! Month
  SummerDesignDay,                        ! Day Type
  0,                                      ! Daylight Saving Time Indicator
  Dewpoint,                               ! Humidity Indicating Type
  ,                                       ! Humidity Indicating Day Schedule Name
  DefaultMultipliers,                     ! Dry-Bulb Temperature Range Modifier Type
  ,                                       ! Dry-Bulb Temperature Range Modifier Schedule Name
  ASHRAETau,                              ! Solar Model Indicator
  ,                                       ! Beam Solar Day Schedule Name
  ,                                       ! Diffuse Solar Day Schedule Name
  0.442,                                  ! ASHRAE Taub {dimensionless}
  1.871;                                  ! ASHRAE Taud {dimensionless}

OS:ComponentData,
  {209654bf-5c68-4c8d-8b36-84210538ada3}, ! Handle
  Component Data 1,                       ! Name
  {634d289b-f347-4a26-9b60-86d035317a53}, ! UUID
  {05aed830-7142-4778-9709-4261d76aabd8}, ! Version UUID
  1366309477,                             ! Creation Timestamp
  1366309477,                             ! Version Timestamp
  {52138916-ca5d-42c8-b918-153f00e94682}; ! Name of Object 1

