
OS:Version,
  {9d6b8784-f1b8-4069-96ee-2e51eb5ffb40}, ! Handle
  0.9.3;                                  ! Version Identifier

OS:SizingPeriod:DesignDay,
  {f4053551-3000-4029-977b-23ff95859ccc}, ! Handle
  Childress Municipal Ap Ann Clg .4% Condns DP=>MDB, ! Name
  28.3,                                   ! Maximum Dry-Bulb Temperature {C}
  12.7,                                   ! Daily Dry-Bulb Temperature Range {deltaC}
  22.5,                                   ! Humidity Indicating Conditions at Maximum Dry-Bulb {BasedOnField A3}
  94378,                                  ! Barometric Pressure {Pa}
  5.8,                                    ! Wind Speed {m/s}
  170,                                    ! Wind Direction {deg}
  0,                                      ! Sky Clearness
  0,                                      ! Rain Indicator
  0,                                      ! Snow Indicator
  21,                                     ! Day of Month
  7,                                      ! Month
  SummerDesignDay,                        ! Day Type
  0,                                      ! Daylight Saving Time Indicator
  Dewpoint,                               ! Humidity Indicating Type
  ,                                       ! Humidity Indicating Day Schedule Name
  DefaultMultipliers,                     ! Dry-Bulb Temperature Range Modifier Type
  ,                                       ! Dry-Bulb Temperature Range Modifier Schedule Name
  ASHRAETau,                              ! Solar Model Indicator
  ,                                       ! Beam Solar Day Schedule Name
  ,                                       ! Diffuse Solar Day Schedule Name
  0.413,                                  ! ASHRAE Taub {dimensionless}
  2.207;                                  ! ASHRAE Taud {dimensionless}

