
OS:Version,
  {ffc05689-ab99-4cda-aa4a-43f6cf466e65}, ! Handle
  0.9.3;                                  ! Version Identifier

OS:SizingPeriod:DesignDay,
  {4bd4d5cc-2e86-4f2c-8fc9-1bb0b68d2d79}, ! Handle
  Fort Sill Post Field Af Ann Hum_n 99.6% Condns DP=>MCDB, ! Name
  -7.8,                                   ! Maximum Dry-Bulb Temperature {C}
  0,                                      ! Daily Dry-Bulb Temperature Range {deltaC}
  -17.6,                                  ! Humidity Indicating Conditions at Maximum Dry-Bulb {BasedOnField A3}
  96970,                                  ! Barometric Pressure {Pa}
  5,                                      ! Wind Speed {m/s}
  10,                                     ! Wind Direction {deg}
  0,                                      ! Sky Clearness
  0,                                      ! Rain Indicator
  0,                                      ! Snow Indicator
  21,                                     ! Day of Month
  1,                                      ! Month
  WinterDesignDay,                        ! Day Type
  0,                                      ! Daylight Saving Time Indicator
  Dewpoint,                               ! Humidity Indicating Type
  ,                                       ! Humidity Indicating Day Schedule Name
  DefaultMultipliers,                     ! Dry-Bulb Temperature Range Modifier Type
  ,                                       ! Dry-Bulb Temperature Range Modifier Schedule Name
  ASHRAEClearSky;                         ! Solar Model Indicator

OS:ComponentData,
  {00d7da09-1c01-4251-9fc2-06b40efae28f}, ! Handle
  Component Data 1,                       ! Name
  {d9b80ebd-7d8d-4f54-bc3e-9f3d40f74843}, ! UUID
  {aa4fc627-05a9-450a-ade3-d10cf63c8e07}, ! Version UUID
  1366309888,                             ! Creation Timestamp
  1366309888,                             ! Version Timestamp
  {4bd4d5cc-2e86-4f2c-8fc9-1bb0b68d2d79}; ! Name of Object 1

