
OS:Version,
  {2d75abbe-cf1b-4f71-a31e-e63df63f19b7}, ! Handle
  0.9.3;                                  ! Version Identifier

OS:SizingPeriod:DesignDay,
  {a02dc1a2-3a05-453d-af6e-7049b5d5084d}, ! Handle
  Ambler Ann Htg 99.6% Condns DB,         ! Name
  -42.2,                                  ! Maximum Dry-Bulb Temperature {C}
  0,                                      ! Daily Dry-Bulb Temperature Range {deltaC}
  -42.2,                                  ! Humidity Indicating Conditions at Maximum Dry-Bulb {BasedOnField A3}
  100272,                                 ! Barometric Pressure {Pa}
  0.7,                                    ! Wind Speed {m/s}
  40,                                     ! Wind Direction {deg}
  0,                                      ! Sky Clearness
  0,                                      ! Rain Indicator
  0,                                      ! Snow Indicator
  21,                                     ! Day of Month
  1,                                      ! Month
  WinterDesignDay,                        ! Day Type
  0,                                      ! Daylight Saving Time Indicator
  Wetbulb,                                ! Humidity Indicating Type
  ,                                       ! Humidity Indicating Day Schedule Name
  DefaultMultipliers,                     ! Dry-Bulb Temperature Range Modifier Type
  ,                                       ! Dry-Bulb Temperature Range Modifier Schedule Name
  ASHRAEClearSky;                         ! Solar Model Indicator

OS:ComponentData,
  {e13fb3e5-1ec1-4f6a-8209-bb2ce5efd605}, ! Handle
  Component Data 1,                       ! Name
  {3ca3913b-3437-489b-ad55-8f1ccc94a9e4}, ! UUID
  {6c609eb4-e8cc-473e-8089-4aeeb03e3228}, ! Version UUID
  1366304683,                             ! Creation Timestamp
  1366304683,                             ! Version Timestamp
  {a02dc1a2-3a05-453d-af6e-7049b5d5084d}; ! Name of Object 1

