
OS:Version,
  {f8839a96-d2a2-41fd-8b21-65e944bf5a12}, ! Handle
  0.9.3;                                  ! Version Identifier

OS:SizingPeriod:DesignDay,
  {f59a5886-009d-4d6b-8bc9-737c4fac844c}, ! Handle
  Daytona Beach Intl Ap Ann Clg 2% Condns WB=>MDB, ! Name
  30,                                     ! Maximum Dry-Bulb Temperature {C}
  9,                                      ! Daily Dry-Bulb Temperature Range {deltaC}
  25.8,                                   ! Humidity Indicating Conditions at Maximum Dry-Bulb {BasedOnField A3}
  101217,                                 ! Barometric Pressure {Pa}
  4.4,                                    ! Wind Speed {m/s}
  230,                                    ! Wind Direction {deg}
  0,                                      ! Sky Clearness
  0,                                      ! Rain Indicator
  0,                                      ! Snow Indicator
  21,                                     ! Day of Month
  7,                                      ! Month
  SummerDesignDay,                        ! Day Type
  0,                                      ! Daylight Saving Time Indicator
  Wetbulb,                                ! Humidity Indicating Type
  ,                                       ! Humidity Indicating Day Schedule Name
  DefaultMultipliers,                     ! Dry-Bulb Temperature Range Modifier Type
  ,                                       ! Dry-Bulb Temperature Range Modifier Schedule Name
  ASHRAETau,                              ! Solar Model Indicator
  ,                                       ! Beam Solar Day Schedule Name
  ,                                       ! Diffuse Solar Day Schedule Name
  0.512,                                  ! ASHRAE Taub {dimensionless}
  1.951;                                  ! ASHRAE Taud {dimensionless}

OS:ComponentData,
  {3ef94552-565e-4f25-9f49-093e8b71f530}, ! Handle
  Component Data 1,                       ! Name
  {64d1ff42-e3d9-46b4-8d8b-7345e844ab64}, ! UUID
  {62ea9dcd-b80b-429c-8021-7ee0a2106dcf}, ! Version UUID
  1366306793,                             ! Creation Timestamp
  1366306793,                             ! Version Timestamp
  {f59a5886-009d-4d6b-8bc9-737c4fac844c}; ! Name of Object 1

