
OS:Version,
  {74267392-6ef8-4ad0-8cfc-189df0edd0b1}, ! Handle
  0.9.3;                                  ! Version Identifier

OS:SizingPeriod:DesignDay,
  {ced0ce69-4377-4149-8751-23a005e46697}, ! Handle
  Cadillac Wexford Co Ap Ann Htg Wind 99.6% Condns WS=>MCDB, ! Name
  -4.5,                                   ! Maximum Dry-Bulb Temperature {C}
  0,                                      ! Daily Dry-Bulb Temperature Range {deltaC}
  -4.5,                                   ! Humidity Indicating Conditions at Maximum Dry-Bulb {BasedOnField A3}
  96657,                                  ! Barometric Pressure {Pa}
  10.1,                                   ! Wind Speed {m/s}
  320,                                    ! Wind Direction {deg}
  0,                                      ! Sky Clearness
  0,                                      ! Rain Indicator
  0,                                      ! Snow Indicator
  21,                                     ! Day of Month
  1,                                      ! Month
  WinterDesignDay,                        ! Day Type
  0,                                      ! Daylight Saving Time Indicator
  Wetbulb,                                ! Humidity Indicating Type
  ,                                       ! Humidity Indicating Day Schedule Name
  DefaultMultipliers,                     ! Dry-Bulb Temperature Range Modifier Type
  ,                                       ! Dry-Bulb Temperature Range Modifier Schedule Name
  ASHRAEClearSky;                         ! Solar Model Indicator

OS:ComponentData,
  {2d8ae9fb-2c53-4926-8da9-f3991e873c2b}, ! Handle
  Component Data 1,                       ! Name
  {e51f361e-6836-4e28-9bad-b5c1b4ba7dbb}, ! UUID
  {9a6047e0-41ad-444d-8fc3-3223020a1998}, ! Version UUID
  1366307962,                             ! Creation Timestamp
  1366307962,                             ! Version Timestamp
  {ced0ce69-4377-4149-8751-23a005e46697}; ! Name of Object 1

