
OS:Version,
  {a2384d8a-3a68-432c-a01b-90f8e32d813a}, ! Handle
  0.9.3;                                  ! Version Identifier

OS:SizingPeriod:DesignDay,
  {ed143994-7fdf-40f6-b994-66db23f79bce}, ! Handle
  Laramie General Brees Field Ann Htg 99.6% Condns DB, ! Name
  -22.9,                                  ! Maximum Dry-Bulb Temperature {C}
  0,                                      ! Daily Dry-Bulb Temperature Range {deltaC}
  -22.9,                                  ! Humidity Indicating Conditions at Maximum Dry-Bulb {BasedOnField A3}
  77396,                                  ! Barometric Pressure {Pa}
  3.1,                                    ! Wind Speed {m/s}
  130,                                    ! Wind Direction {deg}
  0,                                      ! Sky Clearness
  0,                                      ! Rain Indicator
  0,                                      ! Snow Indicator
  21,                                     ! Day of Month
  12,                                     ! Month
  WinterDesignDay,                        ! Day Type
  0,                                      ! Daylight Saving Time Indicator
  Wetbulb,                                ! Humidity Indicating Type
  ,                                       ! Humidity Indicating Day Schedule Name
  DefaultMultipliers,                     ! Dry-Bulb Temperature Range Modifier Type
  ,                                       ! Dry-Bulb Temperature Range Modifier Schedule Name
  ASHRAEClearSky;                         ! Solar Model Indicator

OS:ComponentData,
  {ea58cfda-7788-4acd-95b4-0bb1ce6869ea}, ! Handle
  Component Data 1,                       ! Name
  {dc6f8193-c63f-47ab-9bec-98e509660a9a}, ! UUID
  {930d3b75-7d7a-4d92-a32d-1d495758bf66}, ! Version UUID
  1366311759,                             ! Creation Timestamp
  1366311759,                             ! Version Timestamp
  {ed143994-7fdf-40f6-b994-66db23f79bce}; ! Name of Object 1

