
OS:Version,
  {51792313-c50a-49c0-8bb5-e742f1c57a24}, ! Handle
  0.9.3;                                  ! Version Identifier

OS:SizingPeriod:DesignDay,
  {ec43477e-1cb6-433c-8bc9-09b90cdfb4c7}, ! Handle
  Columbus Port Columbus Intl A Ann Htg 99% Condns DB, ! Name
  -12.7,                                  ! Maximum Dry-Bulb Temperature {C}
  0,                                      ! Daily Dry-Bulb Temperature Range {deltaC}
  -12.7,                                  ! Humidity Indicating Conditions at Maximum Dry-Bulb {BasedOnField A3}
  98393,                                  ! Barometric Pressure {Pa}
  3.6,                                    ! Wind Speed {m/s}
  260,                                    ! Wind Direction {deg}
  0,                                      ! Sky Clearness
  0,                                      ! Rain Indicator
  0,                                      ! Snow Indicator
  21,                                     ! Day of Month
  1,                                      ! Month
  WinterDesignDay,                        ! Day Type
  0,                                      ! Daylight Saving Time Indicator
  Wetbulb,                                ! Humidity Indicating Type
  ,                                       ! Humidity Indicating Day Schedule Name
  DefaultMultipliers,                     ! Dry-Bulb Temperature Range Modifier Type
  ,                                       ! Dry-Bulb Temperature Range Modifier Schedule Name
  ASHRAEClearSky;                         ! Solar Model Indicator

OS:ComponentData,
  {4a322ddf-efbe-4705-9482-43ada4d7f770}, ! Handle
  Component Data 1,                       ! Name
  {2292fa26-be05-4cf0-9491-2758b97a2fad}, ! UUID
  {8172bd22-b9f1-4a9a-a0bd-d24bdd79d21b}, ! Version UUID
  1366309797,                             ! Creation Timestamp
  1366309797,                             ! Version Timestamp
  {ec43477e-1cb6-433c-8bc9-09b90cdfb4c7}; ! Name of Object 1

