
OS:Version,
  {cb338dbe-80e3-4361-bb8a-85a92bba5716}, ! Handle
  0.9.3;                                  ! Version Identifier

OS:SizingPeriod:DesignDay,
  {eff96c62-6ebe-48df-9f32-c0e533f29a1d}, ! Handle
  Cloquet  Awos Ann Clg 1% Condns Enth=>MDB, ! Name
  25.5,                                   ! Maximum Dry-Bulb Temperature {C}
  11.5,                                   ! Daily Dry-Bulb Temperature Range {deltaC}
  67400,                                  ! Humidity Indicating Conditions at Maximum Dry-Bulb {BasedOnField A3}
  96727,                                  ! Barometric Pressure {Pa}
  4.2,                                    ! Wind Speed {m/s}
  200,                                    ! Wind Direction {deg}
  0,                                      ! Sky Clearness
  0,                                      ! Rain Indicator
  0,                                      ! Snow Indicator
  21,                                     ! Day of Month
  7,                                      ! Month
  SummerDesignDay,                        ! Day Type
  0,                                      ! Daylight Saving Time Indicator
  Enthalpy,                               ! Humidity Indicating Type
  ,                                       ! Humidity Indicating Day Schedule Name
  DefaultMultipliers,                     ! Dry-Bulb Temperature Range Modifier Type
  ,                                       ! Dry-Bulb Temperature Range Modifier Schedule Name
  ASHRAETau,                              ! Solar Model Indicator
  ,                                       ! Beam Solar Day Schedule Name
  ,                                       ! Diffuse Solar Day Schedule Name
  0.399,                                  ! ASHRAE Taub {dimensionless}
  2.211;                                  ! ASHRAE Taud {dimensionless}

OS:ComponentData,
  {3e49462e-2197-47ae-ad33-6305cd8050ab}, ! Handle
  Component Data 1,                       ! Name
  {662ad4e0-2a33-470d-a384-45d3b7bc02de}, ! UUID
  {92658468-8293-40fd-9689-7c88dcde5719}, ! Version UUID
  1366308181,                             ! Creation Timestamp
  1366308181,                             ! Version Timestamp
  {eff96c62-6ebe-48df-9f32-c0e533f29a1d}; ! Name of Object 1

