
OS:Version,
  {c6916557-996a-43dd-b8e4-34223bbab100}, ! Handle
  0.9.3;                                  ! Version Identifier

OS:SizingPeriod:DesignDay,
  {6e9e6beb-fb39-4065-86e1-3ff0f5d7c3bc}, ! Handle
  Boise Air Terminal  Uo Ann Clg .4% Condns WB=>MDB, ! Name
  33.2,                                   ! Maximum Dry-Bulb Temperature {C}
  16.7,                                   ! Daily Dry-Bulb Temperature Range {deltaC}
  19.1,                                   ! Humidity Indicating Conditions at Maximum Dry-Bulb {BasedOnField A3}
  93182,                                  ! Barometric Pressure {Pa}
  4.2,                                    ! Wind Speed {m/s}
  330,                                    ! Wind Direction {deg}
  0,                                      ! Sky Clearness
  0,                                      ! Rain Indicator
  0,                                      ! Snow Indicator
  21,                                     ! Day of Month
  7,                                      ! Month
  SummerDesignDay,                        ! Day Type
  0,                                      ! Daylight Saving Time Indicator
  Wetbulb,                                ! Humidity Indicating Type
  ,                                       ! Humidity Indicating Day Schedule Name
  DefaultMultipliers,                     ! Dry-Bulb Temperature Range Modifier Type
  ,                                       ! Dry-Bulb Temperature Range Modifier Schedule Name
  ASHRAETau,                              ! Solar Model Indicator
  ,                                       ! Beam Solar Day Schedule Name
  ,                                       ! Diffuse Solar Day Schedule Name
  0.398,                                  ! ASHRAE Taub {dimensionless}
  2.125;                                  ! ASHRAE Taud {dimensionless}

OS:ComponentData,
  {79fad43d-b85c-4c0b-a8e9-416798faab29}, ! Handle
  Component Data 1,                       ! Name
  {e4ad9a97-9ef6-4397-a153-f983c418353b}, ! UUID
  {19009377-f5ff-469e-8d7d-551bdecc1c43}, ! Version UUID
  1366307270,                             ! Creation Timestamp
  1366307270,                             ! Version Timestamp
  {6e9e6beb-fb39-4065-86e1-3ff0f5d7c3bc}; ! Name of Object 1

