
OS:Version,
  {f421001c-77df-49fa-9e49-b5a46f6c5711}, ! Handle
  0.9.3;                                  ! Version Identifier

OS:SizingPeriod:DesignDay,
  {aa4be94a-e31e-4360-9391-00cba155bf8a}, ! Handle
  Hayden Yampa  Awos Ann Clg 1% Condns Enth=>MDB, ! Name
  25,                                     ! Maximum Dry-Bulb Temperature {C}
  16.3,                                   ! Daily Dry-Bulb Temperature Range {deltaC}
  46600,                                  ! Humidity Indicating Conditions at Maximum Dry-Bulb {BasedOnField A3}
  79377,                                  ! Barometric Pressure {Pa}
  4.3,                                    ! Wind Speed {m/s}
  280,                                    ! Wind Direction {deg}
  0,                                      ! Sky Clearness
  0,                                      ! Rain Indicator
  0,                                      ! Snow Indicator
  21,                                     ! Day of Month
  7,                                      ! Month
  SummerDesignDay,                        ! Day Type
  0,                                      ! Daylight Saving Time Indicator
  Enthalpy,                               ! Humidity Indicating Type
  ,                                       ! Humidity Indicating Day Schedule Name
  DefaultMultipliers,                     ! Dry-Bulb Temperature Range Modifier Type
  ,                                       ! Dry-Bulb Temperature Range Modifier Schedule Name
  ASHRAETau,                              ! Solar Model Indicator
  ,                                       ! Beam Solar Day Schedule Name
  ,                                       ! Diffuse Solar Day Schedule Name
  0.372,                                  ! ASHRAE Taub {dimensionless}
  2.222;                                  ! ASHRAE Taud {dimensionless}

OS:ComponentData,
  {7de3fd06-7657-45a5-8945-6109bb6ab996}, ! Handle
  Component Data 1,                       ! Name
  {4a6aaae4-673f-4d32-aafa-4bbd23211dad}, ! UUID
  {2462d25e-4661-4383-a4c5-c8ff36c46e02}, ! Version UUID
  1366306712,                             ! Creation Timestamp
  1366306712,                             ! Version Timestamp
  {aa4be94a-e31e-4360-9391-00cba155bf8a}; ! Name of Object 1

