
OS:Version,
  {00437df1-5459-4e8d-a6b2-314cb0d9be6b}, ! Handle
  0.9.3;                                  ! Version Identifier

OS:SizingPeriod:DesignDay,
  {d7725989-e0db-4c72-8f6d-0cd624d45e93}, ! Handle
  GREEN_BAY Ann Clg 2% Condns DP=>MDB,    ! Name
  25.3,                                   ! Maximum Dry-Bulb Temperature {C}
  11.3,                                   ! Daily Dry-Bulb Temperature Range {deltaC}
  21,                                     ! Humidity Indicating Conditions at Maximum Dry-Bulb {BasedOnField A3}
  98780,                                  ! Barometric Pressure {Pa}
  5.1,                                    ! Wind Speed {m/s}
  200,                                    ! Wind Direction {deg}
  0,                                      ! Sky Clearness
  0,                                      ! Rain Indicator
  0,                                      ! Snow Indicator
  21,                                     ! Day of Month
  7,                                      ! Month
  SummerDesignDay,                        ! Day Type
  0,                                      ! Daylight Saving Time Indicator
  Dewpoint,                               ! Humidity Indicating Type
  ,                                       ! Humidity Indicating Day Schedule Name
  DefaultMultipliers,                     ! Dry-Bulb Temperature Range Modifier Type
  ,                                       ! Dry-Bulb Temperature Range Modifier Schedule Name
  ASHRAETau,                              ! Solar Model Indicator
  ,                                       ! Beam Solar Day Schedule Name
  ,                                       ! Diffuse Solar Day Schedule Name
  0.432,                                  ! ASHRAE Taub {dimensionless}
  2.118;                                  ! ASHRAE Taud {dimensionless}

OS:ComponentData,
  {835f2585-676d-40c8-89fa-360cc5e360b2}, ! Handle
  Component Data 1,                       ! Name
  {9c9cc68f-5bb7-4f60-89e4-3d7adc6b42d9}, ! UUID
  {012bf8bd-2525-4fb6-b508-cc7127457ea2}, ! Version UUID
  1366311496,                             ! Creation Timestamp
  1366311496,                             ! Version Timestamp
  {d7725989-e0db-4c72-8f6d-0cd624d45e93}; ! Name of Object 1

