
OS:Version,
  {c4ba3212-a058-4010-8cb8-b7ae2e365063}, ! Handle
  0.9.3;                                  ! Version Identifier

OS:SizingPeriod:DesignDay,
  {7822a692-e150-4123-8ab3-3dc78baf4e29}, ! Handle
  Coeur D Alene Awos Ann Clg 1% Condns WB=>MDB, ! Name
  28.8,                                   ! Maximum Dry-Bulb Temperature {C}
  15.6,                                   ! Daily Dry-Bulb Temperature Range {deltaC}
  17.7,                                   ! Humidity Indicating Conditions at Maximum Dry-Bulb {BasedOnField A3}
  93115,                                  ! Barometric Pressure {Pa}
  2.8,                                    ! Wind Speed {m/s}
  250,                                    ! Wind Direction {deg}
  0,                                      ! Sky Clearness
  0,                                      ! Rain Indicator
  0,                                      ! Snow Indicator
  21,                                     ! Day of Month
  7,                                      ! Month
  SummerDesignDay,                        ! Day Type
  0,                                      ! Daylight Saving Time Indicator
  Wetbulb,                                ! Humidity Indicating Type
  ,                                       ! Humidity Indicating Day Schedule Name
  DefaultMultipliers,                     ! Dry-Bulb Temperature Range Modifier Type
  ,                                       ! Dry-Bulb Temperature Range Modifier Schedule Name
  ASHRAETau,                              ! Solar Model Indicator
  ,                                       ! Beam Solar Day Schedule Name
  ,                                       ! Diffuse Solar Day Schedule Name
  0.345,                                  ! ASHRAE Taub {dimensionless}
  2.481;                                  ! ASHRAE Taud {dimensionless}

OS:ComponentData,
  {1ab7b086-2a16-47d7-87c0-2f5ed5a525ed}, ! Handle
  Component Data 1,                       ! Name
  {2c73cb8c-d920-46c5-bbfd-b72dd2976b1a}, ! UUID
  {63dc35b9-346a-4767-bad4-57a24ad9125f}, ! Version UUID
  1366307281,                             ! Creation Timestamp
  1366307281,                             ! Version Timestamp
  {7822a692-e150-4123-8ab3-3dc78baf4e29}; ! Name of Object 1

