
OS:Version,
  {a4597aaa-a16d-448b-8304-5df5f6d046f2}, ! Handle
  0.9.3;                                  ! Version Identifier

OS:SizingPeriod:DesignDay,
  {88efa1e5-966d-45a1-987e-880b70cecc38}, ! Handle
  BIRMINGHAM Ann Htg 99.6% Condns DB,     ! Name
  -6.9,                                   ! Maximum Dry-Bulb Temperature {C}
  0,                                      ! Daily Dry-Bulb Temperature Range {deltaC}
  -6.9,                                   ! Humidity Indicating Conditions at Maximum Dry-Bulb {BasedOnField A3}
  99040,                                  ! Barometric Pressure {Pa}
  3.1,                                    ! Wind Speed {m/s}
  350,                                    ! Wind Direction {deg}
  0,                                      ! Sky Clearness
  0,                                      ! Rain Indicator
  0,                                      ! Snow Indicator
  21,                                     ! Day of Month
  1,                                      ! Month
  WinterDesignDay,                        ! Day Type
  0,                                      ! Daylight Saving Time Indicator
  Wetbulb,                                ! Humidity Indicating Type
  ,                                       ! Humidity Indicating Day Schedule Name
  DefaultMultipliers,                     ! Dry-Bulb Temperature Range Modifier Type
  ,                                       ! Dry-Bulb Temperature Range Modifier Schedule Name
  ASHRAEClearSky;                         ! Solar Model Indicator

OS:ComponentData,
  {ae0119de-73f2-4b0f-8602-ef7fa11be3e5}, ! Handle
  Component Data 1,                       ! Name
  {e5f177ec-7e8e-4e6e-b9ea-64347c378861}, ! UUID
  {4eb49862-0ef6-4d39-afa4-b11ff33852b4}, ! Version UUID
  1366305639,                             ! Creation Timestamp
  1366305639,                             ! Version Timestamp
  {88efa1e5-966d-45a1-987e-880b70cecc38}; ! Name of Object 1

