
OS:Version,
  {75ac21e1-95e6-426e-b5c0-82de7612370a}, ! Handle
  0.9.3;                                  ! Version Identifier

OS:SizingPeriod:DesignDay,
  {cc57434e-2809-4363-851d-0417291fd5d5}, ! Handle
  Glens Falls Ap Ann Hum_n 99.6% Condns DP=>MCDB, ! Name
  -22.3,                                  ! Maximum Dry-Bulb Temperature {C}
  0,                                      ! Daily Dry-Bulb Temperature Range {deltaC}
  -27.9,                                  ! Humidity Indicating Conditions at Maximum Dry-Bulb {BasedOnField A3}
  100153,                                 ! Barometric Pressure {Pa}
  0.9,                                    ! Wind Speed {m/s}
  320,                                    ! Wind Direction {deg}
  0,                                      ! Sky Clearness
  0,                                      ! Rain Indicator
  0,                                      ! Snow Indicator
  21,                                     ! Day of Month
  1,                                      ! Month
  WinterDesignDay,                        ! Day Type
  0,                                      ! Daylight Saving Time Indicator
  Dewpoint,                               ! Humidity Indicating Type
  ,                                       ! Humidity Indicating Day Schedule Name
  DefaultMultipliers,                     ! Dry-Bulb Temperature Range Modifier Type
  ,                                       ! Dry-Bulb Temperature Range Modifier Schedule Name
  ASHRAEClearSky;                         ! Solar Model Indicator

OS:ComponentData,
  {f382bd49-7205-43e7-8bd4-d7b9fb358630}, ! Handle
  Component Data 1,                       ! Name
  {9a9729f9-6f70-4cab-849f-3f70aca448bf}, ! UUID
  {2904480b-6b5c-4187-a845-50e7a726e2d5}, ! Version UUID
  1366309625,                             ! Creation Timestamp
  1366309625,                             ! Version Timestamp
  {cc57434e-2809-4363-851d-0417291fd5d5}; ! Name of Object 1

