
OS:Version,
  {00aea95d-6806-4153-9fb7-289b7765357b}, ! Handle
  0.9.3;                                  ! Version Identifier

OS:SizingPeriod:DesignDay,
  {1b10febf-c57f-4d7b-b9f9-dbae63fbd3b2}, ! Handle
  BINGHAMTON Ann Clg 1% Condns Enth=>MDB, ! Name
  26,                                     ! Maximum Dry-Bulb Temperature {C}
  9.7,                                    ! Daily Dry-Bulb Temperature Range {deltaC}
  65700,                                  ! Humidity Indicating Conditions at Maximum Dry-Bulb {BasedOnField A3}
  95472,                                  ! Barometric Pressure {Pa}
  4.6,                                    ! Wind Speed {m/s}
  240,                                    ! Wind Direction {deg}
  0,                                      ! Sky Clearness
  0,                                      ! Rain Indicator
  0,                                      ! Snow Indicator
  21,                                     ! Day of Month
  7,                                      ! Month
  SummerDesignDay,                        ! Day Type
  0,                                      ! Daylight Saving Time Indicator
  Enthalpy,                               ! Humidity Indicating Type
  ,                                       ! Humidity Indicating Day Schedule Name
  DefaultMultipliers,                     ! Dry-Bulb Temperature Range Modifier Type
  ,                                       ! Dry-Bulb Temperature Range Modifier Schedule Name
  ASHRAETau,                              ! Solar Model Indicator
  ,                                       ! Beam Solar Day Schedule Name
  ,                                       ! Diffuse Solar Day Schedule Name
  0.452,                                  ! ASHRAE Taub {dimensionless}
  2.004;                                  ! ASHRAE Taud {dimensionless}

OS:ComponentData,
  {8487fb39-79f6-4b7a-bb81-4fa977dd216a}, ! Handle
  Component Data 1,                       ! Name
  {34f1e746-c126-4174-96d7-6ba063169a39}, ! UUID
  {e3fce821-f10a-4434-bd72-40a442a54887}, ! Version UUID
  1366309600,                             ! Creation Timestamp
  1366309600,                             ! Version Timestamp
  {1b10febf-c57f-4d7b-b9f9-dbae63fbd3b2}; ! Name of Object 1

