
OS:Version,
  {ad2b7b56-d3ea-4ee2-8061-519cf5c9328c}, ! Handle
  0.9.3;                                  ! Version Identifier

OS:SizingPeriod:DesignDay,
  {7bda5d68-40b1-4a34-8772-be3426caba0a}, ! Handle
  DAYTON Ann Htg Wind 99.6% Condns WS=>MCDB, ! Name
  -1.5,                                   ! Maximum Dry-Bulb Temperature {C}
  0,                                      ! Daily Dry-Bulb Temperature Range {deltaC}
  -1.5,                                   ! Humidity Indicating Conditions at Maximum Dry-Bulb {BasedOnField A3}
  97703,                                  ! Barometric Pressure {Pa}
  11.9,                                   ! Wind Speed {m/s}
  260,                                    ! Wind Direction {deg}
  0,                                      ! Sky Clearness
  0,                                      ! Rain Indicator
  0,                                      ! Snow Indicator
  21,                                     ! Day of Month
  1,                                      ! Month
  WinterDesignDay,                        ! Day Type
  0,                                      ! Daylight Saving Time Indicator
  Wetbulb,                                ! Humidity Indicating Type
  ,                                       ! Humidity Indicating Day Schedule Name
  DefaultMultipliers,                     ! Dry-Bulb Temperature Range Modifier Type
  ,                                       ! Dry-Bulb Temperature Range Modifier Schedule Name
  ASHRAEClearSky;                         ! Solar Model Indicator

OS:ComponentData,
  {5619e128-c0b5-49a0-a88e-48bdff9c505f}, ! Handle
  Component Data 1,                       ! Name
  {7ae10947-8667-4d75-b7ec-4f0d793ef263}, ! UUID
  {c2008af8-bec8-47f3-9756-a77b4d6bdf57}, ! Version UUID
  1366309816,                             ! Creation Timestamp
  1366309816,                             ! Version Timestamp
  {7bda5d68-40b1-4a34-8772-be3426caba0a}; ! Name of Object 1

