
OS:Version,
  {562deec1-865f-41fd-b4b1-3aeb4627f328}, ! Handle
  0.9.3;                                  ! Version Identifier

OS:SizingPeriod:DesignDay,
  {979d8bf8-be12-4558-b833-fc7d5bb93bf3}, ! Handle
  LOUISVILLE Ann Clg .4% Condns Enth=>MDB, ! Name
  31.5,                                   ! Maximum Dry-Bulb Temperature {C}
  9.7,                                    ! Daily Dry-Bulb Temperature Range {deltaC}
  81000,                                  ! Humidity Indicating Conditions at Maximum Dry-Bulb {BasedOnField A3}
  99548,                                  ! Barometric Pressure {Pa}
  4.2,                                    ! Wind Speed {m/s}
  240,                                    ! Wind Direction {deg}
  0,                                      ! Sky Clearness
  0,                                      ! Rain Indicator
  0,                                      ! Snow Indicator
  21,                                     ! Day of Month
  7,                                      ! Month
  SummerDesignDay,                        ! Day Type
  0,                                      ! Daylight Saving Time Indicator
  Enthalpy,                               ! Humidity Indicating Type
  ,                                       ! Humidity Indicating Day Schedule Name
  DefaultMultipliers,                     ! Dry-Bulb Temperature Range Modifier Type
  ,                                       ! Dry-Bulb Temperature Range Modifier Schedule Name
  ASHRAETau,                              ! Solar Model Indicator
  ,                                       ! Beam Solar Day Schedule Name
  ,                                       ! Diffuse Solar Day Schedule Name
  0.51,                                   ! ASHRAE Taub {dimensionless}
  1.872;                                  ! ASHRAE Taud {dimensionless}

OS:ComponentData,
  {ad933aa5-101d-4cfc-86dd-8dcaf95dfd48}, ! Handle
  Component Data 1,                       ! Name
  {33abc6c6-6cae-4465-86f0-8195af7714d4}, ! UUID
  {ded7f691-0d71-44b4-a195-92e04fd260c1}, ! Version UUID
  1366307676,                             ! Creation Timestamp
  1366307676,                             ! Version Timestamp
  {979d8bf8-be12-4558-b833-fc7d5bb93bf3}; ! Name of Object 1

