
OS:Version,
  {0d3b3a93-6ffe-41d3-8b24-15dedf624308}, ! Handle
  0.9.3;                                  ! Version Identifier

OS:SizingPeriod:DesignDay,
  {9e6d5dc6-0d79-405d-9f49-c31e58e3033f}, ! Handle
  Columbia Ann Clg 1% Condns Enth=>MDB,   ! Name
  31.2,                                   ! Maximum Dry-Bulb Temperature {C}
  11,                                     ! Daily Dry-Bulb Temperature Range {deltaC}
  79200,                                  ! Humidity Indicating Conditions at Maximum Dry-Bulb {BasedOnField A3}
  98076,                                  ! Barometric Pressure {Pa}
  4.4,                                    ! Wind Speed {m/s}
  220,                                    ! Wind Direction {deg}
  0,                                      ! Sky Clearness
  0,                                      ! Rain Indicator
  0,                                      ! Snow Indicator
  21,                                     ! Day of Month
  7,                                      ! Month
  SummerDesignDay,                        ! Day Type
  0,                                      ! Daylight Saving Time Indicator
  Enthalpy,                               ! Humidity Indicating Type
  ,                                       ! Humidity Indicating Day Schedule Name
  DefaultMultipliers,                     ! Dry-Bulb Temperature Range Modifier Type
  ,                                       ! Dry-Bulb Temperature Range Modifier Schedule Name
  ASHRAETau,                              ! Solar Model Indicator
  ,                                       ! Beam Solar Day Schedule Name
  ,                                       ! Diffuse Solar Day Schedule Name
  0.448,                                  ! ASHRAE Taub {dimensionless}
  2.098;                                  ! ASHRAE Taud {dimensionless}

OS:ComponentData,
  {c7ec0e86-0979-46e2-bef4-203c76a15164}, ! Handle
  Component Data 1,                       ! Name
  {ce5dba20-cefe-4862-b849-3b4b33e23d0c}, ! UUID
  {1e186515-3bd0-488e-8a3b-fb6e8a2ed9d8}, ! Version UUID
  1366308488,                             ! Creation Timestamp
  1366308488,                             ! Version Timestamp
  {9e6d5dc6-0d79-405d-9f49-c31e58e3033f}; ! Name of Object 1

