
OS:Version,
  {e3121e7f-6d24-4f8c-93fe-0892d2017fda}, ! Handle
  0.9.3;                                  ! Version Identifier

OS:SizingPeriod:DesignDay,
  {019b881b-b118-4696-b0a6-6c9892af7548}, ! Handle
  CLEVELAND Ann Clg .4% Condns DB=>MWB,   ! Name
  31.9,                                   ! Maximum Dry-Bulb Temperature {C}
  9.8,                                    ! Daily Dry-Bulb Temperature Range {deltaC}
  23.3,                                   ! Humidity Indicating Conditions at Maximum Dry-Bulb {BasedOnField A3}
  98416,                                  ! Barometric Pressure {Pa}
  5,                                      ! Wind Speed {m/s}
  230,                                    ! Wind Direction {deg}
  0,                                      ! Sky Clearness
  0,                                      ! Rain Indicator
  0,                                      ! Snow Indicator
  21,                                     ! Day of Month
  7,                                      ! Month
  SummerDesignDay,                        ! Day Type
  0,                                      ! Daylight Saving Time Indicator
  Wetbulb,                                ! Humidity Indicating Type
  ,                                       ! Humidity Indicating Day Schedule Name
  DefaultMultipliers,                     ! Dry-Bulb Temperature Range Modifier Type
  ,                                       ! Dry-Bulb Temperature Range Modifier Schedule Name
  ASHRAETau,                              ! Solar Model Indicator
  ,                                       ! Beam Solar Day Schedule Name
  ,                                       ! Diffuse Solar Day Schedule Name
  0.471,                                  ! ASHRAE Taub {dimensionless}
  1.988;                                  ! ASHRAE Taud {dimensionless}

OS:ComponentData,
  {e61e4831-2ccc-4f34-b44e-2d32425c8d3d}, ! Handle
  Component Data 1,                       ! Name
  {2acf78c9-da89-4ed2-8abd-8b0fc13fb14f}, ! UUID
  {97760ba1-2d10-4c0c-b12a-31da0a8b6099}, ! Version UUID
  1366309785,                             ! Creation Timestamp
  1366309785,                             ! Version Timestamp
  {019b881b-b118-4696-b0a6-6c9892af7548}; ! Name of Object 1

