
OS:Version,
  {3cd8615e-15cf-4c0f-8ab2-93704393cc9b}, ! Handle
  0.9.3;                                  ! Version Identifier

OS:SizingPeriod:DesignDay,
  {004d6359-2005-4248-bd74-a9967db78bb9}, ! Handle
  Fort Smith Ann Clg .4% Condns DB=>MWB,  ! Name
  37.3,                                   ! Maximum Dry-Bulb Temperature {C}
  11.5,                                   ! Daily Dry-Bulb Temperature Range {deltaC}
  24.7,                                   ! Humidity Indicating Conditions at Maximum Dry-Bulb {BasedOnField A3}
  99643,                                  ! Barometric Pressure {Pa}
  3.7,                                    ! Wind Speed {m/s}
  230,                                    ! Wind Direction {deg}
  0,                                      ! Sky Clearness
  0,                                      ! Rain Indicator
  0,                                      ! Snow Indicator
  21,                                     ! Day of Month
  7,                                      ! Month
  SummerDesignDay,                        ! Day Type
  0,                                      ! Daylight Saving Time Indicator
  Wetbulb,                                ! Humidity Indicating Type
  ,                                       ! Humidity Indicating Day Schedule Name
  DefaultMultipliers,                     ! Dry-Bulb Temperature Range Modifier Type
  ,                                       ! Dry-Bulb Temperature Range Modifier Schedule Name
  ASHRAETau,                              ! Solar Model Indicator
  ,                                       ! Beam Solar Day Schedule Name
  ,                                       ! Diffuse Solar Day Schedule Name
  0.49,                                   ! ASHRAE Taub {dimensionless}
  1.983;                                  ! ASHRAE Taud {dimensionless}

OS:ComponentData,
  {91f32ed7-631e-4325-a678-ae406d79cd0a}, ! Handle
  Component Data 1,                       ! Name
  {fd94f5cf-9ded-4d8d-8b63-460a298be6c8}, ! UUID
  {5b55e2f2-3f78-4274-8b55-bf4616a07fbb}, ! Version UUID
  1366306210,                             ! Creation Timestamp
  1366306210,                             ! Version Timestamp
  {004d6359-2005-4248-bd74-a9967db78bb9}; ! Name of Object 1

