
OS:Version,
  {3e648f06-3c10-4d29-8b0e-b8db0f5c76bb}, ! Handle
  0.9.3;                                  ! Version Identifier

OS:SizingPeriod:DesignDay,
  {8b2843e2-25d6-4e97-ab35-cfeeada6b1a0}, ! Handle
  Farmington Four Corners Regl Ann Clg 1% Condns WB=>MDB, ! Name
  27.5,                                   ! Maximum Dry-Bulb Temperature {C}
  16.1,                                   ! Daily Dry-Bulb Temperature Range {deltaC}
  17.9,                                   ! Humidity Indicating Conditions at Maximum Dry-Bulb {BasedOnField A3}
  82756,                                  ! Barometric Pressure {Pa}
  4.9,                                    ! Wind Speed {m/s}
  240,                                    ! Wind Direction {deg}
  0,                                      ! Sky Clearness
  0,                                      ! Rain Indicator
  0,                                      ! Snow Indicator
  21,                                     ! Day of Month
  7,                                      ! Month
  SummerDesignDay,                        ! Day Type
  0,                                      ! Daylight Saving Time Indicator
  Wetbulb,                                ! Humidity Indicating Type
  ,                                       ! Humidity Indicating Day Schedule Name
  DefaultMultipliers,                     ! Dry-Bulb Temperature Range Modifier Type
  ,                                       ! Dry-Bulb Temperature Range Modifier Schedule Name
  ASHRAETau,                              ! Solar Model Indicator
  ,                                       ! Beam Solar Day Schedule Name
  ,                                       ! Diffuse Solar Day Schedule Name
  0.402,                                  ! ASHRAE Taub {dimensionless}
  2.092;                                  ! ASHRAE Taud {dimensionless}

OS:ComponentData,
  {d17e6046-a8e5-4173-a628-50f6683111e1}, ! Handle
  Component Data 1,                       ! Name
  {90855ef4-2fa9-458c-82c6-bba249683538}, ! UUID
  {b0c7a778-f81e-498e-b29d-f83079b701e0}, ! Version UUID
  1366309403,                             ! Creation Timestamp
  1366309403,                             ! Version Timestamp
  {8b2843e2-25d6-4e97-ab35-cfeeada6b1a0}; ! Name of Object 1

