
OS:Version,
  {8a045d32-4f5b-4047-8dad-ca9980d4c62f}, ! Handle
  0.9.3;                                  ! Version Identifier

OS:SizingPeriod:DesignDay,
  {433e84dc-5fb3-4c64-8a89-267b9bbb41a6}, ! Handle
  Cheyenne/Warren AFB Ann Hum_n 99.6% Condns DP=>MCDB, ! Name
  -19.1,                                  ! Maximum Dry-Bulb Temperature {C}
  0,                                      ! Daily Dry-Bulb Temperature Range {deltaC}
  -25.1,                                  ! Humidity Indicating Conditions at Maximum Dry-Bulb {BasedOnField A3}
  80767,                                  ! Barometric Pressure {Pa}
  4.2,                                    ! Wind Speed {m/s}
  0,                                      ! Wind Direction {deg}
  0,                                      ! Sky Clearness
  0,                                      ! Rain Indicator
  0,                                      ! Snow Indicator
  21,                                     ! Day of Month
  12,                                     ! Month
  WinterDesignDay,                        ! Day Type
  0,                                      ! Daylight Saving Time Indicator
  Dewpoint,                               ! Humidity Indicating Type
  ,                                       ! Humidity Indicating Day Schedule Name
  DefaultMultipliers,                     ! Dry-Bulb Temperature Range Modifier Type
  ,                                       ! Dry-Bulb Temperature Range Modifier Schedule Name
  ASHRAEClearSky;                         ! Solar Model Indicator

OS:ComponentData,
  {80c09c2e-443c-4b39-8882-c3781de86d3d}, ! Handle
  Component Data 1,                       ! Name
  {14b7375e-3294-43ac-bc05-c1d6d70457b6}, ! UUID
  {214f8409-a453-461c-a919-4cf57f9b1358}, ! Version UUID
  1366311705,                             ! Creation Timestamp
  1366311705,                             ! Version Timestamp
  {433e84dc-5fb3-4c64-8a89-267b9bbb41a6}; ! Name of Object 1

