
OS:Version,
  {6a8e8b56-f385-4b18-b281-9b4f5f65d880}, ! Handle
  0.9.3;                                  ! Version Identifier

OS:SizingPeriod:DesignDay,
  {dc2718f6-478e-4e98-8b3e-656ce556f6cc}, ! Handle
  Andrews Afb Ann Hum_n 99.6% Condns DP=>MCDB, ! Name
  -7.7,                                   ! Maximum Dry-Bulb Temperature {C}
  0,                                      ! Daily Dry-Bulb Temperature Range {deltaC}
  -18.8,                                  ! Humidity Indicating Conditions at Maximum Dry-Bulb {BasedOnField A3}
  100296,                                 ! Barometric Pressure {Pa}
  3.9,                                    ! Wind Speed {m/s}
  320,                                    ! Wind Direction {deg}
  0,                                      ! Sky Clearness
  0,                                      ! Rain Indicator
  0,                                      ! Snow Indicator
  21,                                     ! Day of Month
  1,                                      ! Month
  WinterDesignDay,                        ! Day Type
  0,                                      ! Daylight Saving Time Indicator
  Dewpoint,                               ! Humidity Indicating Type
  ,                                       ! Humidity Indicating Day Schedule Name
  DefaultMultipliers,                     ! Dry-Bulb Temperature Range Modifier Type
  ,                                       ! Dry-Bulb Temperature Range Modifier Schedule Name
  ASHRAEClearSky;                         ! Solar Model Indicator

OS:ComponentData,
  {f1ba3dea-7444-42cd-95b4-bd495127740e}, ! Handle
  Component Data 1,                       ! Name
  {9063a812-fe88-4409-9f05-9f3c2b31f899}, ! UUID
  {c9510a3a-10b6-42ed-a546-20b0a46646a2}, ! Version UUID
  1366307833,                             ! Creation Timestamp
  1366307833,                             ! Version Timestamp
  {dc2718f6-478e-4e98-8b3e-656ce556f6cc}; ! Name of Object 1

