
OS:Version,
  {b9ab48be-a0d7-49a7-bb2b-877c35385fc4}, ! Handle
  0.9.3;                                  ! Version Identifier

OS:SizingPeriod:DesignDay,
  {c4cbcb91-5d29-490e-abbf-08604bc8c9dc}, ! Handle
  Clinton Sherman Ann Clg .4% Condns WB=>MDB, ! Name
  32,                                     ! Maximum Dry-Bulb Temperature {C}
  12.8,                                   ! Daily Dry-Bulb Temperature Range {deltaC}
  24.6,                                   ! Humidity Indicating Conditions at Maximum Dry-Bulb {BasedOnField A3}
  94480,                                  ! Barometric Pressure {Pa}
  6.1,                                    ! Wind Speed {m/s}
  190,                                    ! Wind Direction {deg}
  0,                                      ! Sky Clearness
  0,                                      ! Rain Indicator
  0,                                      ! Snow Indicator
  21,                                     ! Day of Month
  7,                                      ! Month
  SummerDesignDay,                        ! Day Type
  0,                                      ! Daylight Saving Time Indicator
  Wetbulb,                                ! Humidity Indicating Type
  ,                                       ! Humidity Indicating Day Schedule Name
  DefaultMultipliers,                     ! Dry-Bulb Temperature Range Modifier Type
  ,                                       ! Dry-Bulb Temperature Range Modifier Schedule Name
  ASHRAETau,                              ! Solar Model Indicator
  ,                                       ! Beam Solar Day Schedule Name
  ,                                       ! Diffuse Solar Day Schedule Name
  0.405,                                  ! ASHRAE Taub {dimensionless}
  2.264;                                  ! ASHRAE Taud {dimensionless}

OS:ComponentData,
  {c7059ce4-8a56-4483-a61f-3b817e83576e}, ! Handle
  Component Data 1,                       ! Name
  {191755f4-5700-4d7e-9918-0bc665eeb833}, ! UUID
  {34481e23-a0ad-4134-8f43-928e27940dc5}, ! Version UUID
  1366309884,                             ! Creation Timestamp
  1366309884,                             ! Version Timestamp
  {c4cbcb91-5d29-490e-abbf-08604bc8c9dc}; ! Name of Object 1

