
OS:Version,
  {09262e0d-9b09-41a9-8f1c-465506e843bd}, ! Handle
  0.9.3;                                  ! Version Identifier

OS:SizingPeriod:DesignDay,
  {feaee924-8a15-437c-b5c0-401e0ddb0d16}, ! Handle
  CHARLESTON Ann Clg 1% Condns DP=>MDB,   ! Name
  28.5,                                   ! Maximum Dry-Bulb Temperature {C}
  9,                                      ! Daily Dry-Bulb Temperature Range {deltaC}
  25.3,                                   ! Humidity Indicating Conditions at Maximum Dry-Bulb {BasedOnField A3}
  101181,                                 ! Barometric Pressure {Pa}
  4.4,                                    ! Wind Speed {m/s}
  230,                                    ! Wind Direction {deg}
  0,                                      ! Sky Clearness
  0,                                      ! Rain Indicator
  0,                                      ! Snow Indicator
  21,                                     ! Day of Month
  7,                                      ! Month
  SummerDesignDay,                        ! Day Type
  0,                                      ! Daylight Saving Time Indicator
  Dewpoint,                               ! Humidity Indicating Type
  ,                                       ! Humidity Indicating Day Schedule Name
  DefaultMultipliers,                     ! Dry-Bulb Temperature Range Modifier Type
  ,                                       ! Dry-Bulb Temperature Range Modifier Schedule Name
  ASHRAETau,                              ! Solar Model Indicator
  ,                                       ! Beam Solar Day Schedule Name
  ,                                       ! Diffuse Solar Day Schedule Name
  0.559,                                  ! ASHRAE Taub {dimensionless}
  1.811;                                  ! ASHRAE Taud {dimensionless}

OS:ComponentData,
  {ecdbe85a-4ed8-4d43-b97c-7f7cb9b19190}, ! Handle
  Component Data 1,                       ! Name
  {4d5bf756-7e74-4333-9104-8884fd6cf3bd}, ! UUID
  {fea23c37-86cd-4a38-907e-0f382a20fcad}, ! Version UUID
  1366310323,                             ! Creation Timestamp
  1366310323,                             ! Version Timestamp
  {feaee924-8a15-437c-b5c0-401e0ddb0d16}; ! Name of Object 1

