
OS:Version,
  {38357684-8ae9-469b-a70c-ffa09d445836}, ! Handle
  0.9.3;                                  ! Version Identifier

OS:SizingPeriod:DesignDay,
  {40138ada-70d1-4725-9e38-c933377e4958}, ! Handle
  La Junta Municipal Ap Ann Clg .4% Condns DB=>MWB, ! Name
  37.7,                                   ! Maximum Dry-Bulb Temperature {C}
  16.5,                                   ! Daily Dry-Bulb Temperature Range {deltaC}
  18,                                     ! Humidity Indicating Conditions at Maximum Dry-Bulb {BasedOnField A3}
  86853,                                  ! Barometric Pressure {Pa}
  4.9,                                    ! Wind Speed {m/s}
  140,                                    ! Wind Direction {deg}
  0,                                      ! Sky Clearness
  0,                                      ! Rain Indicator
  0,                                      ! Snow Indicator
  21,                                     ! Day of Month
  7,                                      ! Month
  SummerDesignDay,                        ! Day Type
  0,                                      ! Daylight Saving Time Indicator
  Wetbulb,                                ! Humidity Indicating Type
  ,                                       ! Humidity Indicating Day Schedule Name
  DefaultMultipliers,                     ! Dry-Bulb Temperature Range Modifier Type
  ,                                       ! Dry-Bulb Temperature Range Modifier Schedule Name
  ASHRAETau,                              ! Solar Model Indicator
  ,                                       ! Beam Solar Day Schedule Name
  ,                                       ! Diffuse Solar Day Schedule Name
  0.435,                                  ! ASHRAE Taub {dimensionless}
  1.974;                                  ! ASHRAE Taud {dimensionless}

OS:ComponentData,
  {c4efd2ab-523f-49d1-aba4-e5a85244f6b4}, ! Handle
  Component Data 1,                       ! Name
  {3dfe67e3-8b4b-473f-80cc-2125a485c976}, ! UUID
  {3ab40dfb-010c-45be-ac0b-ead33e53ed10}, ! Version UUID
  1366306714,                             ! Creation Timestamp
  1366306714,                             ! Version Timestamp
  {40138ada-70d1-4725-9e38-c933377e4958}; ! Name of Object 1

