
OS:Version,
  {afaf902e-de06-47c5-9da0-d5de396a6107}, ! Handle
  0.9.3;                                  ! Version Identifier

OS:SizingPeriod:DesignDay,
  {96438d01-b9b7-486d-9234-98cb4dd5b4f7}, ! Handle
  La Junta Municipal Ap Ann Clg .4% Condns DB=>MWB, ! Name
  37.7,                                   ! Maximum Dry-Bulb Temperature {C}
  16.5,                                   ! Daily Dry-Bulb Temperature Range {deltaC}
  18,                                     ! Humidity Indicating Conditions at Maximum Dry-Bulb {BasedOnField A3}
  86853,                                  ! Barometric Pressure {Pa}
  4.9,                                    ! Wind Speed {m/s}
  140,                                    ! Wind Direction {deg}
  0,                                      ! Sky Clearness
  0,                                      ! Rain Indicator
  0,                                      ! Snow Indicator
  21,                                     ! Day of Month
  7,                                      ! Month
  SummerDesignDay,                        ! Day Type
  0,                                      ! Daylight Saving Time Indicator
  Wetbulb,                                ! Humidity Indicating Type
  ,                                       ! Humidity Indicating Day Schedule Name
  DefaultMultipliers,                     ! Dry-Bulb Temperature Range Modifier Type
  ,                                       ! Dry-Bulb Temperature Range Modifier Schedule Name
  ASHRAETau,                              ! Solar Model Indicator
  ,                                       ! Beam Solar Day Schedule Name
  ,                                       ! Diffuse Solar Day Schedule Name
  0.435,                                  ! ASHRAE Taub {dimensionless}
  1.974;                                  ! ASHRAE Taud {dimensionless}

