
OS:Version,
  {32e0bc70-024f-42c1-bd0c-8eea6a04fa5e}, ! Handle
  0.9.3;                                  ! Version Identifier

OS:SizingPeriod:DesignDay,
  {cdad98e8-cf7f-40cc-a9dd-b8808cc817e7}, ! Handle
  Fallon Naas Ann Htg 99.6% Condns DB,    ! Name
  -12.4,                                  ! Maximum Dry-Bulb Temperature {C}
  0,                                      ! Daily Dry-Bulb Temperature Range {deltaC}
  -12.4,                                  ! Humidity Indicating Conditions at Maximum Dry-Bulb {BasedOnField A3}
  87726,                                  ! Barometric Pressure {Pa}
  0.9,                                    ! Wind Speed {m/s}
  160,                                    ! Wind Direction {deg}
  0,                                      ! Sky Clearness
  0,                                      ! Rain Indicator
  0,                                      ! Snow Indicator
  21,                                     ! Day of Month
  12,                                     ! Month
  WinterDesignDay,                        ! Day Type
  0,                                      ! Daylight Saving Time Indicator
  Wetbulb,                                ! Humidity Indicating Type
  ,                                       ! Humidity Indicating Day Schedule Name
  DefaultMultipliers,                     ! Dry-Bulb Temperature Range Modifier Type
  ,                                       ! Dry-Bulb Temperature Range Modifier Schedule Name
  ASHRAEClearSky;                         ! Solar Model Indicator

OS:ComponentData,
  {677f80d6-7fc8-48b3-ad71-d4bd3d32115e}, ! Handle
  Component Data 1,                       ! Name
  {d3317b72-f366-45de-a2c0-e2a44b59e43f}, ! UUID
  {68b9550a-96aa-476e-bb60-c75fe6cb54b3}, ! Version UUID
  1366309491,                             ! Creation Timestamp
  1366309491,                             ! Version Timestamp
  {cdad98e8-cf7f-40cc-a9dd-b8808cc817e7}; ! Name of Object 1

