
OS:Version,
  {b633d5e9-0330-4bd4-92a3-b939a86ea38c}, ! Handle
  0.9.3;                                  ! Version Identifier

OS:SizingPeriod:DesignDay,
  {b1a3551f-a1f2-4201-893a-248e1d713c89}, ! Handle
  Allentown Lehigh Valley Intl Ann Clg 1% Condns WB=>MDB, ! Name
  28.8,                                   ! Maximum Dry-Bulb Temperature {C}
  10.7,                                   ! Daily Dry-Bulb Temperature Range {deltaC}
  24,                                     ! Humidity Indicating Conditions at Maximum Dry-Bulb {BasedOnField A3}
  99904,                                  ! Barometric Pressure {Pa}
  4.6,                                    ! Wind Speed {m/s}
  240,                                    ! Wind Direction {deg}
  0,                                      ! Sky Clearness
  0,                                      ! Rain Indicator
  0,                                      ! Snow Indicator
  21,                                     ! Day of Month
  7,                                      ! Month
  SummerDesignDay,                        ! Day Type
  0,                                      ! Daylight Saving Time Indicator
  Wetbulb,                                ! Humidity Indicating Type
  ,                                       ! Humidity Indicating Day Schedule Name
  DefaultMultipliers,                     ! Dry-Bulb Temperature Range Modifier Type
  ,                                       ! Dry-Bulb Temperature Range Modifier Schedule Name
  ASHRAETau,                              ! Solar Model Indicator
  ,                                       ! Beam Solar Day Schedule Name
  ,                                       ! Diffuse Solar Day Schedule Name
  0.504,                                  ! ASHRAE Taub {dimensionless}
  1.885;                                  ! ASHRAE Taud {dimensionless}

OS:ComponentData,
  {9d792d57-4696-4051-baac-4ac4260aed5f}, ! Handle
  Component Data 1,                       ! Name
  {c58908c4-3e7a-456d-91f8-c1a12cdd0364}, ! UUID
  {c37736f0-84c8-4207-8458-e4db2f8e66df}, ! Version UUID
  1366310132,                             ! Creation Timestamp
  1366310132,                             ! Version Timestamp
  {b1a3551f-a1f2-4201-893a-248e1d713c89}; ! Name of Object 1

