
OS:Version,
  {a00786ab-3e48-4406-be7e-ca2b1e2d1468}, ! Handle
  0.9.3;                                  ! Version Identifier

OS:SizingPeriod:DesignDay,
  {60a9445b-1dda-4164-b0d4-4b5279b8eba8}, ! Handle
  COVINGTON Ann Clg 2% Condns DB=>MWB,    ! Name
  30.3,                                   ! Maximum Dry-Bulb Temperature {C}
  10.3,                                   ! Daily Dry-Bulb Temperature Range {deltaC}
  22.5,                                   ! Humidity Indicating Conditions at Maximum Dry-Bulb {BasedOnField A3}
  98112,                                  ! Barometric Pressure {Pa}
  4.3,                                    ! Wind Speed {m/s}
  230,                                    ! Wind Direction {deg}
  0,                                      ! Sky Clearness
  0,                                      ! Rain Indicator
  0,                                      ! Snow Indicator
  21,                                     ! Day of Month
  7,                                      ! Month
  SummerDesignDay,                        ! Day Type
  0,                                      ! Daylight Saving Time Indicator
  Wetbulb,                                ! Humidity Indicating Type
  ,                                       ! Humidity Indicating Day Schedule Name
  DefaultMultipliers,                     ! Dry-Bulb Temperature Range Modifier Type
  ,                                       ! Dry-Bulb Temperature Range Modifier Schedule Name
  ASHRAETau,                              ! Solar Model Indicator
  ,                                       ! Beam Solar Day Schedule Name
  ,                                       ! Diffuse Solar Day Schedule Name
  0.493,                                  ! ASHRAE Taub {dimensionless}
  1.911;                                  ! ASHRAE Taud {dimensionless}

OS:ComponentData,
  {2fd2b0ed-5375-486d-84da-f482f80e6687}, ! Handle
  Component Data 1,                       ! Name
  {3bd7ed47-fed6-4109-b319-e6d288c50976}, ! UUID
  {5362f6d2-65f4-41f6-9c14-fbfde395a78f}, ! Version UUID
  1366307625,                             ! Creation Timestamp
  1366307625,                             ! Version Timestamp
  {60a9445b-1dda-4164-b0d4-4b5279b8eba8}; ! Name of Object 1

