
OS:Version,
  {2c4d54ff-38aa-4969-82b4-ed79230d7f61}, ! Handle
  0.9.3;                                  ! Version Identifier

OS:SizingPeriod:DesignDay,
  {862dcada-1426-49e7-a9ef-51ac467297d6}, ! Handle
  Asheville Regional Arpt Ann Clg .4% Condns Enth=>MDB, ! Name
  28.4,                                   ! Maximum Dry-Bulb Temperature {C}
  10.7,                                   ! Daily Dry-Bulb Temperature Range {deltaC}
  73000,                                  ! Humidity Indicating Conditions at Maximum Dry-Bulb {BasedOnField A3}
  93734,                                  ! Barometric Pressure {Pa}
  3.8,                                    ! Wind Speed {m/s}
  340,                                    ! Wind Direction {deg}
  0,                                      ! Sky Clearness
  0,                                      ! Rain Indicator
  0,                                      ! Snow Indicator
  21,                                     ! Day of Month
  7,                                      ! Month
  SummerDesignDay,                        ! Day Type
  0,                                      ! Daylight Saving Time Indicator
  Enthalpy,                               ! Humidity Indicating Type
  ,                                       ! Humidity Indicating Day Schedule Name
  DefaultMultipliers,                     ! Dry-Bulb Temperature Range Modifier Type
  ,                                       ! Dry-Bulb Temperature Range Modifier Schedule Name
  ASHRAETau,                              ! Solar Model Indicator
  ,                                       ! Beam Solar Day Schedule Name
  ,                                       ! Diffuse Solar Day Schedule Name
  0.517,                                  ! ASHRAE Taub {dimensionless}
  1.849;                                  ! ASHRAE Taud {dimensionless}

OS:ComponentData,
  {6bed33df-b9cd-4c31-b1b5-8d52b14a65fa}, ! Handle
  Component Data 1,                       ! Name
  {7fdb8dc9-68ea-4ef6-bd9c-2c77415482b4}, ! UUID
  {effb3222-9f36-4fdb-b32c-aaaa63b9bba0}, ! Version UUID
  1366308869,                             ! Creation Timestamp
  1366308869,                             ! Version Timestamp
  {862dcada-1426-49e7-a9ef-51ac467297d6}; ! Name of Object 1

