
OS:Version,
  {1f61d9f6-6e87-487d-911f-f99bf5c8cff4}, ! Handle
  0.9.3;                                  ! Version Identifier

OS:SizingPeriod:DesignDay,
  {fe32c1e7-f243-41d1-93f3-15df6e8a3ed9}, ! Handle
  Kaneohe Bay Mcas Ann Htg Wind 99.6% Condns WS=>MCDB, ! Name
  22.5,                                   ! Maximum Dry-Bulb Temperature {C}
  0,                                      ! Daily Dry-Bulb Temperature Range {deltaC}
  22.5,                                   ! Humidity Indicating Conditions at Maximum Dry-Bulb {BasedOnField A3}
  101289,                                 ! Barometric Pressure {Pa}
  10.7,                                   ! Wind Speed {m/s}
  180,                                    ! Wind Direction {deg}
  0,                                      ! Sky Clearness
  0,                                      ! Rain Indicator
  0,                                      ! Snow Indicator
  21,                                     ! Day of Month
  2,                                      ! Month
  WinterDesignDay,                        ! Day Type
  0,                                      ! Daylight Saving Time Indicator
  Wetbulb,                                ! Humidity Indicating Type
  ,                                       ! Humidity Indicating Day Schedule Name
  DefaultMultipliers,                     ! Dry-Bulb Temperature Range Modifier Type
  ,                                       ! Dry-Bulb Temperature Range Modifier Schedule Name
  ASHRAEClearSky;                         ! Solar Model Indicator

OS:ComponentData,
  {b5548549-df77-40f5-bbd8-6ae334f2ff08}, ! Handle
  Component Data 1,                       ! Name
  {9a65b648-a93a-43ed-96e3-44e360bde27e}, ! UUID
  {722d26b3-28fa-4efa-a466-ebb1429d6384}, ! Version UUID
  1366307103,                             ! Creation Timestamp
  1366307103,                             ! Version Timestamp
  {fe32c1e7-f243-41d1-93f3-15df6e8a3ed9}; ! Name of Object 1

