
OS:Version,
  {822d3964-8d41-4174-8df2-5878a19bbf87}, ! Handle
  0.9.3;                                  ! Version Identifier

OS:SizingPeriod:DesignDay,
  {8d99bf34-2452-4af8-828a-3dac15a51f9d}, ! Handle
  Ely Yelland Field Ann Clg 2% Condns DB=>MWB, ! Name
  30,                                     ! Maximum Dry-Bulb Temperature {C}
  20.3,                                   ! Daily Dry-Bulb Temperature Range {deltaC}
  13.2,                                   ! Humidity Indicating Conditions at Maximum Dry-Bulb {BasedOnField A3}
  80397,                                  ! Barometric Pressure {Pa}
  5.3,                                    ! Wind Speed {m/s}
  220,                                    ! Wind Direction {deg}
  0,                                      ! Sky Clearness
  0,                                      ! Rain Indicator
  0,                                      ! Snow Indicator
  21,                                     ! Day of Month
  7,                                      ! Month
  SummerDesignDay,                        ! Day Type
  0,                                      ! Daylight Saving Time Indicator
  Wetbulb,                                ! Humidity Indicating Type
  ,                                       ! Humidity Indicating Day Schedule Name
  DefaultMultipliers,                     ! Dry-Bulb Temperature Range Modifier Type
  ,                                       ! Dry-Bulb Temperature Range Modifier Schedule Name
  ASHRAETau,                              ! Solar Model Indicator
  ,                                       ! Beam Solar Day Schedule Name
  ,                                       ! Diffuse Solar Day Schedule Name
  0.442,                                  ! ASHRAE Taub {dimensionless}
  1.871;                                  ! ASHRAE Taud {dimensionless}

OS:ComponentData,
  {282bc93c-0774-4a6a-8945-939feb5fad52}, ! Handle
  Component Data 1,                       ! Name
  {863560a8-420e-4522-89bd-e7f6fb4d2dee}, ! UUID
  {617860b1-aeec-4a78-8c60-d457b6a31ee3}, ! Version UUID
  1366309477,                             ! Creation Timestamp
  1366309477,                             ! Version Timestamp
  {8d99bf34-2452-4af8-828a-3dac15a51f9d}; ! Name of Object 1

