
OS:Version,
  {425305e5-6143-4133-ad73-d15e46930c62}, ! Handle
  0.9.3;                                  ! Version Identifier

OS:SizingPeriod:DesignDay,
  {2e734943-4ab0-409a-93c5-675c992aac67}, ! Handle
  LAS_VEGAS Ann Hum_n 99% Condns DP=>MCDB, ! Name
  8.1,                                    ! Maximum Dry-Bulb Temperature {C}
  0,                                      ! Daily Dry-Bulb Temperature Range {deltaC}
  -15.4,                                  ! Humidity Indicating Conditions at Maximum Dry-Bulb {BasedOnField A3}
  93598,                                  ! Barometric Pressure {Pa}
  3,                                      ! Wind Speed {m/s}
  240,                                    ! Wind Direction {deg}
  0,                                      ! Sky Clearness
  0,                                      ! Rain Indicator
  0,                                      ! Snow Indicator
  21,                                     ! Day of Month
  12,                                     ! Month
  WinterDesignDay,                        ! Day Type
  0,                                      ! Daylight Saving Time Indicator
  Dewpoint,                               ! Humidity Indicating Type
  ,                                       ! Humidity Indicating Day Schedule Name
  DefaultMultipliers,                     ! Dry-Bulb Temperature Range Modifier Type
  ,                                       ! Dry-Bulb Temperature Range Modifier Schedule Name
  ASHRAEClearSky;                         ! Solar Model Indicator

OS:ComponentData,
  {4d26a57b-50db-4e07-a5f3-d0519a6d2a52}, ! Handle
  Component Data 1,                       ! Name
  {aca41a0b-e36f-43e4-96e0-d9560664bda1}, ! UUID
  {2651a31c-4d27-40ff-a36a-575c879b7c49}, ! Version UUID
  1366309506,                             ! Creation Timestamp
  1366309506,                             ! Version Timestamp
  {2e734943-4ab0-409a-93c5-675c992aac67}; ! Name of Object 1

