
OS:Version,
  {b5a05166-958e-4d22-8467-775d8933aea1}, ! Handle
  0.9.3;                                  ! Version Identifier

OS:SizingPeriod:DesignDay,
  {82131d7d-bbe8-4742-8594-91632a90867c}, ! Handle
  Cairns Field Fort Rucker Ann Clg .4% Condns WB=>MDB, ! Name
  32,                                     ! Maximum Dry-Bulb Temperature {C}
  10.2,                                   ! Daily Dry-Bulb Temperature Range {deltaC}
  26.8,                                   ! Humidity Indicating Conditions at Maximum Dry-Bulb {BasedOnField A3}
  100237,                                 ! Barometric Pressure {Pa}
  2.5,                                    ! Wind Speed {m/s}
  300,                                    ! Wind Direction {deg}
  0,                                      ! Sky Clearness
  0,                                      ! Rain Indicator
  0,                                      ! Snow Indicator
  21,                                     ! Day of Month
  7,                                      ! Month
  SummerDesignDay,                        ! Day Type
  0,                                      ! Daylight Saving Time Indicator
  Wetbulb,                                ! Humidity Indicating Type
  ,                                       ! Humidity Indicating Day Schedule Name
  DefaultMultipliers,                     ! Dry-Bulb Temperature Range Modifier Type
  ,                                       ! Dry-Bulb Temperature Range Modifier Schedule Name
  ASHRAETau,                              ! Solar Model Indicator
  ,                                       ! Beam Solar Day Schedule Name
  ,                                       ! Diffuse Solar Day Schedule Name
  0.546,                                  ! ASHRAE Taub {dimensionless}
  1.83;                                   ! ASHRAE Taud {dimensionless}

OS:ComponentData,
  {d148f929-b239-4f0c-a46c-8db48a78576c}, ! Handle
  Component Data 1,                       ! Name
  {86c4fa58-b059-4d99-a056-996458e6f368}, ! UUID
  {50481e76-630d-4cbc-a869-d8fe332c70ee}, ! Version UUID
  1366305657,                             ! Creation Timestamp
  1366305657,                             ! Version Timestamp
  {82131d7d-bbe8-4742-8594-91632a90867c}; ! Name of Object 1

