
OS:Version,
  {8a43bbef-978f-4a0b-879d-f807f2d56075}, ! Handle
  0.9.3;                                  ! Version Identifier

OS:SizingPeriod:DesignDay,
  {9c4b3237-186d-4051-add3-41f2ba6de896}, ! Handle
  Fort Lauderdale Hollywood Int Ann Clg 1% Condns DB=>MWB, ! Name
  32.5,                                   ! Maximum Dry-Bulb Temperature {C}
  6.1,                                    ! Daily Dry-Bulb Temperature Range {deltaC}
  25.7,                                   ! Humidity Indicating Conditions at Maximum Dry-Bulb {BasedOnField A3}
  101289,                                 ! Barometric Pressure {Pa}
  4.8,                                    ! Wind Speed {m/s}
  140,                                    ! Wind Direction {deg}
  0,                                      ! Sky Clearness
  0,                                      ! Rain Indicator
  0,                                      ! Snow Indicator
  21,                                     ! Day of Month
  7,                                      ! Month
  SummerDesignDay,                        ! Day Type
  0,                                      ! Daylight Saving Time Indicator
  Wetbulb,                                ! Humidity Indicating Type
  ,                                       ! Humidity Indicating Day Schedule Name
  DefaultMultipliers,                     ! Dry-Bulb Temperature Range Modifier Type
  ,                                       ! Dry-Bulb Temperature Range Modifier Schedule Name
  ASHRAETau,                              ! Solar Model Indicator
  ,                                       ! Beam Solar Day Schedule Name
  ,                                       ! Diffuse Solar Day Schedule Name
  0.518,                                  ! ASHRAE Taub {dimensionless}
  1.938;                                  ! ASHRAE Taud {dimensionless}

OS:ComponentData,
  {788ed12a-d57e-4a14-9bb3-ad96659fd6a5}, ! Handle
  Component Data 1,                       ! Name
  {e12eaa7b-1c1d-424c-9991-0b8e72521123}, ! UUID
  {87a7a934-5272-4a73-9c97-ba5637f683c8}, ! Version UUID
  1366306797,                             ! Creation Timestamp
  1366306797,                             ! Version Timestamp
  {9c4b3237-186d-4051-add3-41f2ba6de896}; ! Name of Object 1

