
OS:Version,
  {630c93a5-cc87-4a16-b056-ba4e417a8055}, ! Handle
  0.9.3;                                  ! Version Identifier

OS:SizingPeriod:DesignDay,
  {3896226d-7b34-4705-9c7e-76dffbd06f8c}, ! Handle
  Altus Afb Ann Clg .4% Condns Enth=>MDB, ! Name
  34.6,                                   ! Maximum Dry-Bulb Temperature {C}
  13.4,                                   ! Daily Dry-Bulb Temperature Range {deltaC}
  81200,                                  ! Humidity Indicating Conditions at Maximum Dry-Bulb {BasedOnField A3}
  96449,                                  ! Barometric Pressure {Pa}
  4.8,                                    ! Wind Speed {m/s}
  160,                                    ! Wind Direction {deg}
  0,                                      ! Sky Clearness
  0,                                      ! Rain Indicator
  0,                                      ! Snow Indicator
  21,                                     ! Day of Month
  7,                                      ! Month
  SummerDesignDay,                        ! Day Type
  0,                                      ! Daylight Saving Time Indicator
  Enthalpy,                               ! Humidity Indicating Type
  ,                                       ! Humidity Indicating Day Schedule Name
  DefaultMultipliers,                     ! Dry-Bulb Temperature Range Modifier Type
  ,                                       ! Dry-Bulb Temperature Range Modifier Schedule Name
  ASHRAETau,                              ! Solar Model Indicator
  ,                                       ! Beam Solar Day Schedule Name
  ,                                       ! Diffuse Solar Day Schedule Name
  0.426,                                  ! ASHRAE Taub {dimensionless}
  2.183;                                  ! ASHRAE Taud {dimensionless}

OS:ComponentData,
  {d0e330fa-afbe-477a-baca-91c4330d7c9e}, ! Handle
  Component Data 1,                       ! Name
  {63c7166d-52a4-4fc8-bea6-7792345f94a1}, ! UUID
  {de9c38ef-0e9a-4beb-ae46-fad292b1ea06}, ! Version UUID
  1366309879,                             ! Creation Timestamp
  1366309879,                             ! Version Timestamp
  {3896226d-7b34-4705-9c7e-76dffbd06f8c}; ! Name of Object 1

