
OS:Version,
  {88e340f2-ad96-4344-8f83-636d0b088f20}, ! Handle
  0.9.3;                                  ! Version Identifier

OS:SizingPeriod:DesignDay,
  {5ae76d7b-7900-4264-b574-7c81eda5dada}, ! Handle
  Augusta Bush Field Ann Htg 99% Condns DB, ! Name
  -3.4,                                   ! Maximum Dry-Bulb Temperature {C}
  0,                                      ! Daily Dry-Bulb Temperature Range {deltaC}
  -3.4,                                   ! Humidity Indicating Conditions at Maximum Dry-Bulb {BasedOnField A3}
  100845,                                 ! Barometric Pressure {Pa}
  1.5,                                    ! Wind Speed {m/s}
  300,                                    ! Wind Direction {deg}
  0,                                      ! Sky Clearness
  0,                                      ! Rain Indicator
  0,                                      ! Snow Indicator
  21,                                     ! Day of Month
  1,                                      ! Month
  WinterDesignDay,                        ! Day Type
  0,                                      ! Daylight Saving Time Indicator
  Wetbulb,                                ! Humidity Indicating Type
  ,                                       ! Humidity Indicating Day Schedule Name
  DefaultMultipliers,                     ! Dry-Bulb Temperature Range Modifier Type
  ,                                       ! Dry-Bulb Temperature Range Modifier Schedule Name
  ASHRAEClearSky;                         ! Solar Model Indicator

OS:ComponentData,
  {e65e39df-f74f-4cd7-931b-48eacd31e2c7}, ! Handle
  Component Data 1,                       ! Name
  {f51f6f0a-7d01-4740-a09a-a4a54143abc4}, ! UUID
  {d2e0b668-3496-45d5-a8dd-e729137cb446}, ! Version UUID
  1366306987,                             ! Creation Timestamp
  1366306987,                             ! Version Timestamp
  {5ae76d7b-7900-4264-b574-7c81eda5dada}; ! Name of Object 1

