
OS:Version,
  {2bad56e6-683c-41ca-903d-0a58b08996c1}, ! Handle
  0.9.3;                                  ! Version Identifier

OS:SizingPeriod:DesignDay,
  {c88377b2-b5f6-4f8f-9c56-c9133281e268}, ! Handle
  Belmar Asc Ann Clg 2% Condns DP=>MDB,   ! Name
  25.9,                                   ! Maximum Dry-Bulb Temperature {C}
  8.9,                                    ! Daily Dry-Bulb Temperature Range {deltaC}
  21.4,                                   ! Humidity Indicating Conditions at Maximum Dry-Bulb {BasedOnField A3}
  101013,                                 ! Barometric Pressure {Pa}
  4.6,                                    ! Wind Speed {m/s}
  280,                                    ! Wind Direction {deg}
  0,                                      ! Sky Clearness
  0,                                      ! Rain Indicator
  0,                                      ! Snow Indicator
  21,                                     ! Day of Month
  7,                                      ! Month
  SummerDesignDay,                        ! Day Type
  0,                                      ! Daylight Saving Time Indicator
  Dewpoint,                               ! Humidity Indicating Type
  ,                                       ! Humidity Indicating Day Schedule Name
  DefaultMultipliers,                     ! Dry-Bulb Temperature Range Modifier Type
  ,                                       ! Dry-Bulb Temperature Range Modifier Schedule Name
  ASHRAETau,                              ! Solar Model Indicator
  ,                                       ! Beam Solar Day Schedule Name
  ,                                       ! Diffuse Solar Day Schedule Name
  0.543,                                  ! ASHRAE Taub {dimensionless}
  1.8;                                    ! ASHRAE Taud {dimensionless}

OS:ComponentData,
  {48682db6-0a2f-4254-9cf3-9e118fe1853b}, ! Handle
  Component Data 1,                       ! Name
  {182cde6d-870b-4d84-852e-d6a80cb88d15}, ! UUID
  {d26e011b-c0fa-443e-8a2f-1c302b37b87d}, ! Version UUID
  1366309297,                             ! Creation Timestamp
  1366309297,                             ! Version Timestamp
  {c88377b2-b5f6-4f8f-9c56-c9133281e268}; ! Name of Object 1

