
OS:Version,
  {66eb89a7-5f1c-4fe5-9cda-111e4a0542b3}, ! Handle
  0.9.3;                                  ! Version Identifier

OS:SizingPeriod:DesignDay,
  {a2b33dc6-2118-4af3-b6b0-80205c0cf969}, ! Handle
  Cincinnati Northern Ky Ap Ann Clg .4% Condns Enth=>MDB, ! Name
  30.7,                                   ! Maximum Dry-Bulb Temperature {C}
  10.3,                                   ! Daily Dry-Bulb Temperature Range {deltaC}
  78000,                                  ! Humidity Indicating Conditions at Maximum Dry-Bulb {BasedOnField A3}
  98182,                                  ! Barometric Pressure {Pa}
  4.3,                                    ! Wind Speed {m/s}
  230,                                    ! Wind Direction {deg}
  0,                                      ! Sky Clearness
  0,                                      ! Rain Indicator
  0,                                      ! Snow Indicator
  21,                                     ! Day of Month
  7,                                      ! Month
  SummerDesignDay,                        ! Day Type
  0,                                      ! Daylight Saving Time Indicator
  Enthalpy,                               ! Humidity Indicating Type
  ,                                       ! Humidity Indicating Day Schedule Name
  DefaultMultipliers,                     ! Dry-Bulb Temperature Range Modifier Type
  ,                                       ! Dry-Bulb Temperature Range Modifier Schedule Name
  ASHRAETau,                              ! Solar Model Indicator
  ,                                       ! Beam Solar Day Schedule Name
  ,                                       ! Diffuse Solar Day Schedule Name
  0.493,                                  ! ASHRAE Taub {dimensionless}
  1.911;                                  ! ASHRAE Taud {dimensionless}

OS:ComponentData,
  {0514aa0a-fded-4dda-bb19-5bc8e26161ef}, ! Handle
  Component Data 1,                       ! Name
  {12468a64-c4e1-4568-b75e-edfd0df963fc}, ! UUID
  {aad34c6e-b010-49b5-8201-0dd53bd6368f}, ! Version UUID
  1366307622,                             ! Creation Timestamp
  1366307622,                             ! Version Timestamp
  {a2b33dc6-2118-4af3-b6b0-80205c0cf969}; ! Name of Object 1

