
OS:Version,
  {b4af544a-e43b-4c15-8237-8a30088adf63}, ! Handle
  0.9.3;                                  ! Version Identifier

OS:SizingPeriod:DesignDay,
  {7d4f8ab7-f2a9-41bf-8831-ae2d277d5e12}, ! Handle
  Cleveland Hopkins Intl Ap Ann Hum_n 99.6% Condns DP=>MCDB, ! Name
  -15.6,                                  ! Maximum Dry-Bulb Temperature {C}
  0,                                      ! Daily Dry-Bulb Temperature Range {deltaC}
  -20.5,                                  ! Humidity Indicating Conditions at Maximum Dry-Bulb {BasedOnField A3}
  98534,                                  ! Barometric Pressure {Pa}
  4.7,                                    ! Wind Speed {m/s}
  230,                                    ! Wind Direction {deg}
  0,                                      ! Sky Clearness
  0,                                      ! Rain Indicator
  0,                                      ! Snow Indicator
  21,                                     ! Day of Month
  1,                                      ! Month
  WinterDesignDay,                        ! Day Type
  0,                                      ! Daylight Saving Time Indicator
  Dewpoint,                               ! Humidity Indicating Type
  ,                                       ! Humidity Indicating Day Schedule Name
  DefaultMultipliers,                     ! Dry-Bulb Temperature Range Modifier Type
  ,                                       ! Dry-Bulb Temperature Range Modifier Schedule Name
  ASHRAEClearSky;                         ! Solar Model Indicator

OS:ComponentData,
  {f8ea1078-dd42-445d-8aa4-c797fd1d6054}, ! Handle
  Component Data 1,                       ! Name
  {c2d6a390-6577-44fd-89df-884a09086b17}, ! UUID
  {9c514c28-7622-4069-b3a4-4b86cf243eb5}, ! Version UUID
  1366309780,                             ! Creation Timestamp
  1366309780,                             ! Version Timestamp
  {7d4f8ab7-f2a9-41bf-8831-ae2d277d5e12}; ! Name of Object 1

