
OS:Version,
  {925e5e3c-2fed-44c4-9849-316f146ab331}, ! Handle
  0.9.3;                                  ! Version Identifier

OS:SizingPeriod:DesignDay,
  {83167896-4158-402f-a649-218ce5740fff}, ! Handle
  Lewistown Municipal Arpt Ann Htg 99% Condns DB, ! Name
  -23.3,                                  ! Maximum Dry-Bulb Temperature {C}
  0,                                      ! Daily Dry-Bulb Temperature Range {deltaC}
  -23.3,                                  ! Humidity Indicating Conditions at Maximum Dry-Bulb {BasedOnField A3}
  87044,                                  ! Barometric Pressure {Pa}
  3,                                      ! Wind Speed {m/s}
  120,                                    ! Wind Direction {deg}
  0,                                      ! Sky Clearness
  0,                                      ! Rain Indicator
  0,                                      ! Snow Indicator
  21,                                     ! Day of Month
  12,                                     ! Month
  WinterDesignDay,                        ! Day Type
  0,                                      ! Daylight Saving Time Indicator
  Wetbulb,                                ! Humidity Indicating Type
  ,                                       ! Humidity Indicating Day Schedule Name
  DefaultMultipliers,                     ! Dry-Bulb Temperature Range Modifier Type
  ,                                       ! Dry-Bulb Temperature Range Modifier Schedule Name
  ASHRAEClearSky;                         ! Solar Model Indicator

OS:ComponentData,
  {d128997c-e132-44bd-843a-453733d6c242}, ! Handle
  Component Data 1,                       ! Name
  {4d604929-ad18-4b76-971f-1241d68a368d}, ! UUID
  {f9ea2c5a-faa2-4607-95b7-b264786caee8}, ! Version UUID
  1366308820,                             ! Creation Timestamp
  1366308820,                             ! Version Timestamp
  {83167896-4158-402f-a649-218ce5740fff}; ! Name of Object 1

