
OS:Version,
  {98f7065d-aba2-45e7-8b77-ee1ba56a676f}, ! Handle
  0.9.3;                                  ! Version Identifier

OS:SizingPeriod:DesignDay,
  {878b3f4e-446c-412c-a160-4817d263c7a0}, ! Handle
  Jackson International Ap Ann Clg 1% Condns DP=>MDB, ! Name
  28.2,                                   ! Maximum Dry-Bulb Temperature {C}
  10.7,                                   ! Daily Dry-Bulb Temperature Range {deltaC}
  24.6,                                   ! Humidity Indicating Conditions at Maximum Dry-Bulb {BasedOnField A3}
  100201,                                 ! Barometric Pressure {Pa}
  3.2,                                    ! Wind Speed {m/s}
  350,                                    ! Wind Direction {deg}
  0,                                      ! Sky Clearness
  0,                                      ! Rain Indicator
  0,                                      ! Snow Indicator
  21,                                     ! Day of Month
  7,                                      ! Month
  SummerDesignDay,                        ! Day Type
  0,                                      ! Daylight Saving Time Indicator
  Dewpoint,                               ! Humidity Indicating Type
  ,                                       ! Humidity Indicating Day Schedule Name
  DefaultMultipliers,                     ! Dry-Bulb Temperature Range Modifier Type
  ,                                       ! Dry-Bulb Temperature Range Modifier Schedule Name
  ASHRAETau,                              ! Solar Model Indicator
  ,                                       ! Beam Solar Day Schedule Name
  ,                                       ! Diffuse Solar Day Schedule Name
  0.534,                                  ! ASHRAE Taub {dimensionless}
  1.869;                                  ! ASHRAE Taud {dimensionless}

OS:ComponentData,
  {753e08d6-f206-4e8f-85f6-d60ddce9f8f5}, ! Handle
  Component Data 1,                       ! Name
  {0f77a28f-cf18-4465-a9cd-b086afc7e905}, ! UUID
  {7c1e184d-8c2d-4904-a6c5-b8d790f74e58}, ! Version UUID
  1366308652,                             ! Creation Timestamp
  1366308652,                             ! Version Timestamp
  {878b3f4e-446c-412c-a160-4817d263c7a0}; ! Name of Object 1

