
OS:Version,
  {7a3bb46c-6879-4c88-903e-4406b9461488}, ! Handle
  0.9.3;                                  ! Version Identifier

OS:SizingPeriod:DesignDay,
  {a2843a15-6399-428d-88a5-d559d4f236c9}, ! Handle
  Flint Bishop Intl Arpt Ann Clg 1% Condns WB=>MDB, ! Name
  28.3,                                   ! Maximum Dry-Bulb Temperature {C}
  11.7,                                   ! Daily Dry-Bulb Temperature Range {deltaC}
  23.7,                                   ! Humidity Indicating Conditions at Maximum Dry-Bulb {BasedOnField A3}
  98545,                                  ! Barometric Pressure {Pa}
  5.3,                                    ! Wind Speed {m/s}
  250,                                    ! Wind Direction {deg}
  0,                                      ! Sky Clearness
  0,                                      ! Rain Indicator
  0,                                      ! Snow Indicator
  21,                                     ! Day of Month
  7,                                      ! Month
  SummerDesignDay,                        ! Day Type
  0,                                      ! Daylight Saving Time Indicator
  Wetbulb,                                ! Humidity Indicating Type
  ,                                       ! Humidity Indicating Day Schedule Name
  DefaultMultipliers,                     ! Dry-Bulb Temperature Range Modifier Type
  ,                                       ! Dry-Bulb Temperature Range Modifier Schedule Name
  ASHRAETau,                              ! Solar Model Indicator
  ,                                       ! Beam Solar Day Schedule Name
  ,                                       ! Diffuse Solar Day Schedule Name
  0.449,                                  ! ASHRAE Taub {dimensionless}
  2.044;                                  ! ASHRAE Taud {dimensionless}

OS:ComponentData,
  {2ebacf34-4882-48bf-8792-7edddb7c746e}, ! Handle
  Component Data 1,                       ! Name
  {87be85c6-de0b-4bfa-9e5b-3ae1d1b9256d}, ! UUID
  {81211990-824c-4142-aeba-0d9d67926172}, ! Version UUID
  1366308000,                             ! Creation Timestamp
  1366308000,                             ! Version Timestamp
  {a2843a15-6399-428d-88a5-d559d4f236c9}; ! Name of Object 1

