
OS:Version,
  {47a712c9-3e40-483a-8b75-69e9d5a40214}, ! Handle
  0.9.3;                                  ! Version Identifier

OS:SizingPeriod:DesignDay,
  {264ff1cb-9ea9-4592-beed-d5eec0cb36a9}, ! Handle
  EAU_CLAIRE Ann Clg .4% Condns DB=>MWB,  ! Name
  32.7,                                   ! Maximum Dry-Bulb Temperature {C}
  11.5,                                   ! Daily Dry-Bulb Temperature Range {deltaC}
  23,                                     ! Humidity Indicating Conditions at Maximum Dry-Bulb {BasedOnField A3}
  98088,                                  ! Barometric Pressure {Pa}
  5.2,                                    ! Wind Speed {m/s}
  190,                                    ! Wind Direction {deg}
  0,                                      ! Sky Clearness
  0,                                      ! Rain Indicator
  0,                                      ! Snow Indicator
  21,                                     ! Day of Month
  7,                                      ! Month
  SummerDesignDay,                        ! Day Type
  0,                                      ! Daylight Saving Time Indicator
  Wetbulb,                                ! Humidity Indicating Type
  ,                                       ! Humidity Indicating Day Schedule Name
  DefaultMultipliers,                     ! Dry-Bulb Temperature Range Modifier Type
  ,                                       ! Dry-Bulb Temperature Range Modifier Schedule Name
  ASHRAETau,                              ! Solar Model Indicator
  ,                                       ! Beam Solar Day Schedule Name
  ,                                       ! Diffuse Solar Day Schedule Name
  0.412,                                  ! ASHRAE Taub {dimensionless}
  2.189;                                  ! ASHRAE Taud {dimensionless}

OS:ComponentData,
  {07b64645-40f2-4c2b-b155-4bc9d4fd8ab7}, ! Handle
  Component Data 1,                       ! Name
  {c172789e-fbe6-420a-aefd-ed246bdc5602}, ! UUID
  {5272c014-a209-4ebe-b985-a8305eb9cd72}, ! Version UUID
  1366311463,                             ! Creation Timestamp
  1366311463,                             ! Version Timestamp
  {264ff1cb-9ea9-4592-beed-d5eec0cb36a9}; ! Name of Object 1

