
OS:Version,
  {8762c443-689f-4245-bd30-ce9ef420ddf0}, ! Handle
  0.9.3;                                  ! Version Identifier

OS:SizingPeriod:DesignDay,
  {809c46b7-a665-49be-a866-d18df5db22b4}, ! Handle
  Helena Ann Clg 1% Condns DB=>MWB,       ! Name
  31.8,                                   ! Maximum Dry-Bulb Temperature {C}
  16.1,                                   ! Daily Dry-Bulb Temperature Range {deltaC}
  15.9,                                   ! Humidity Indicating Conditions at Maximum Dry-Bulb {BasedOnField A3}
  87844,                                  ! Barometric Pressure {Pa}
  4.9,                                    ! Wind Speed {m/s}
  290,                                    ! Wind Direction {deg}
  0,                                      ! Sky Clearness
  0,                                      ! Rain Indicator
  0,                                      ! Snow Indicator
  21,                                     ! Day of Month
  7,                                      ! Month
  SummerDesignDay,                        ! Day Type
  0,                                      ! Daylight Saving Time Indicator
  Wetbulb,                                ! Humidity Indicating Type
  ,                                       ! Humidity Indicating Day Schedule Name
  DefaultMultipliers,                     ! Dry-Bulb Temperature Range Modifier Type
  ,                                       ! Dry-Bulb Temperature Range Modifier Schedule Name
  ASHRAETau,                              ! Solar Model Indicator
  ,                                       ! Beam Solar Day Schedule Name
  ,                                       ! Diffuse Solar Day Schedule Name
  0.38,                                   ! ASHRAE Taub {dimensionless}
  2.232;                                  ! ASHRAE Taud {dimensionless}

