
OS:Version,
  {6b9803cd-0819-44da-bb19-05378cbb2b5f}, ! Handle
  0.9.3;                                  ! Version Identifier

OS:SizingPeriod:DesignDay,
  {676ff286-7691-40ca-ab05-9a5eddb249e1}, ! Handle
  COLD_BAY Ann Htg Wind 99.6% Condns WS=>MCDB, ! Name
  2.5,                                    ! Maximum Dry-Bulb Temperature {C}
  0,                                      ! Daily Dry-Bulb Temperature Range {deltaC}
  2.5,                                    ! Humidity Indicating Conditions at Maximum Dry-Bulb {BasedOnField A3}
  100977,                                 ! Barometric Pressure {Pa}
  21.4,                                   ! Wind Speed {m/s}
  330,                                    ! Wind Direction {deg}
  0,                                      ! Sky Clearness
  0,                                      ! Rain Indicator
  0,                                      ! Snow Indicator
  21,                                     ! Day of Month
  1,                                      ! Month
  WinterDesignDay,                        ! Day Type
  0,                                      ! Daylight Saving Time Indicator
  Wetbulb,                                ! Humidity Indicating Type
  ,                                       ! Humidity Indicating Day Schedule Name
  DefaultMultipliers,                     ! Dry-Bulb Temperature Range Modifier Type
  ,                                       ! Dry-Bulb Temperature Range Modifier Schedule Name
  ASHRAEClearSky;                         ! Solar Model Indicator

OS:ComponentData,
  {d8801541-bc11-4411-a390-e1502d9c8122}, ! Handle
  Component Data 1,                       ! Name
  {3f6508da-0588-4cb7-8dcb-5131702d8ae9}, ! UUID
  {0d330c23-c311-4e92-bbfb-a632f056e477}, ! Version UUID
  1366304803,                             ! Creation Timestamp
  1366304803,                             ! Version Timestamp
  {676ff286-7691-40ca-ab05-9a5eddb249e1}; ! Name of Object 1

