
OS:Version,
  {4ecf851e-fc9e-4aaa-883a-9073bdd5088d}, ! Handle
  0.9.3;                                  ! Version Identifier

OS:SizingPeriod:DesignDay,
  {a43f3fc6-b866-4d90-b293-c9c8bbe00ab2}, ! Handle
  Houston D W  Hooks Ann Clg 2% Condns DP=>MDB, ! Name
  27.8,                                   ! Maximum Dry-Bulb Temperature {C}
  10.4,                                   ! Daily Dry-Bulb Temperature Range {deltaC}
  24.9,                                   ! Humidity Indicating Conditions at Maximum Dry-Bulb {BasedOnField A3}
  100774,                                 ! Barometric Pressure {Pa}
  3.1,                                    ! Wind Speed {m/s}
  170,                                    ! Wind Direction {deg}
  0,                                      ! Sky Clearness
  0,                                      ! Rain Indicator
  0,                                      ! Snow Indicator
  21,                                     ! Day of Month
  7,                                      ! Month
  SummerDesignDay,                        ! Day Type
  0,                                      ! Daylight Saving Time Indicator
  Dewpoint,                               ! Humidity Indicating Type
  ,                                       ! Humidity Indicating Day Schedule Name
  DefaultMultipliers,                     ! Dry-Bulb Temperature Range Modifier Type
  ,                                       ! Dry-Bulb Temperature Range Modifier Schedule Name
  ASHRAETau,                              ! Solar Model Indicator
  ,                                       ! Beam Solar Day Schedule Name
  ,                                       ! Diffuse Solar Day Schedule Name
  0.496,                                  ! ASHRAE Taub {dimensionless}
  1.979;                                  ! ASHRAE Taud {dimensionless}

OS:ComponentData,
  {f36e6d55-2b10-4e93-ad54-4ab72b389c94}, ! Handle
  Component Data 1,                       ! Name
  {075aabfe-0118-4412-8a27-f60948034fae}, ! UUID
  {3c25cd8a-8a42-4b0a-a82f-d2e33ce04466}, ! Version UUID
  1366310748,                             ! Creation Timestamp
  1366310748,                             ! Version Timestamp
  {a43f3fc6-b866-4d90-b293-c9c8bbe00ab2}; ! Name of Object 1

