
OS:Version,
  {530ec1c2-da0b-4507-932d-ab55277c3121}, ! Handle
  0.9.3;                                  ! Version Identifier

OS:SizingPeriod:DesignDay,
  {0f9b51f7-bde1-4bf0-9194-a45a6d869a67}, ! Handle
  Fallon Naas Ann Clg 1% Condns DP=>MDB,  ! Name
  21.9,                                   ! Maximum Dry-Bulb Temperature {C}
  19.4,                                   ! Daily Dry-Bulb Temperature Range {deltaC}
  11.3,                                   ! Humidity Indicating Conditions at Maximum Dry-Bulb {BasedOnField A3}
  87726,                                  ! Barometric Pressure {Pa}
  2.7,                                    ! Wind Speed {m/s}
  340,                                    ! Wind Direction {deg}
  0,                                      ! Sky Clearness
  0,                                      ! Rain Indicator
  0,                                      ! Snow Indicator
  21,                                     ! Day of Month
  7,                                      ! Month
  SummerDesignDay,                        ! Day Type
  0,                                      ! Daylight Saving Time Indicator
  Dewpoint,                               ! Humidity Indicating Type
  ,                                       ! Humidity Indicating Day Schedule Name
  DefaultMultipliers,                     ! Dry-Bulb Temperature Range Modifier Type
  ,                                       ! Dry-Bulb Temperature Range Modifier Schedule Name
  ASHRAETau,                              ! Solar Model Indicator
  ,                                       ! Beam Solar Day Schedule Name
  ,                                       ! Diffuse Solar Day Schedule Name
  0.428,                                  ! ASHRAE Taub {dimensionless}
  1.955;                                  ! ASHRAE Taud {dimensionless}

OS:ComponentData,
  {4fcba99d-4524-4179-89ed-451f75796da0}, ! Handle
  Component Data 1,                       ! Name
  {d53221a2-668a-4812-bae3-8e95be4158b2}, ! UUID
  {f553f9a1-5ec7-4c91-94c9-043841d45d4f}, ! Version UUID
  1366309493,                             ! Creation Timestamp
  1366309493,                             ! Version Timestamp
  {0f9b51f7-bde1-4bf0-9194-a45a6d869a67}; ! Name of Object 1

