
OS:Version,
  {c9f3fc56-7eae-4c83-9388-3969d8e56b9c}, ! Handle
  0.9.3;                                  ! Version Identifier

OS:SizingPeriod:DesignDay,
  {f3fb9ebe-11d6-4412-a9eb-c952202bdb51}, ! Handle
  Idaho Falls Fanning Field Ann Hum_n 99.6% Condns DP=>MCDB, ! Name
  -22.2,                                  ! Maximum Dry-Bulb Temperature {C}
  0,                                      ! Daily Dry-Bulb Temperature Range {deltaC}
  -26.3,                                  ! Humidity Indicating Conditions at Maximum Dry-Bulb {BasedOnField A3}
  85170,                                  ! Barometric Pressure {Pa}
  3,                                      ! Wind Speed {m/s}
  0,                                      ! Wind Direction {deg}
  0,                                      ! Sky Clearness
  0,                                      ! Rain Indicator
  0,                                      ! Snow Indicator
  21,                                     ! Day of Month
  1,                                      ! Month
  WinterDesignDay,                        ! Day Type
  0,                                      ! Daylight Saving Time Indicator
  Dewpoint,                               ! Humidity Indicating Type
  ,                                       ! Humidity Indicating Day Schedule Name
  DefaultMultipliers,                     ! Dry-Bulb Temperature Range Modifier Type
  ,                                       ! Dry-Bulb Temperature Range Modifier Schedule Name
  ASHRAEClearSky;                         ! Solar Model Indicator

OS:ComponentData,
  {08ad8e8f-f818-44a6-9327-1a4f484b69b7}, ! Handle
  Component Data 1,                       ! Name
  {f3288b02-d920-4da0-a8bf-784e66a6f4c5}, ! UUID
  {bd953dd2-8928-4d56-99a1-9f1064ed01d8}, ! Version UUID
  1366307284,                             ! Creation Timestamp
  1366307284,                             ! Version Timestamp
  {f3fb9ebe-11d6-4412-a9eb-c952202bdb51}; ! Name of Object 1

