
OS:Version,
  {e0079c75-9ed6-4a38-9eac-cb2f58e60ae4}, ! Handle
  0.9.3;                                  ! Version Identifier

OS:SizingPeriod:DesignDay,
  {bbb00e16-275d-4d7f-bc16-cb7dca074595}, ! Handle
  Hilo Ann Clg .4% Condns Enth=>MDB,      ! Name
  27.8,                                   ! Maximum Dry-Bulb Temperature {C}
  7,                                      ! Daily Dry-Bulb Temperature Range {deltaC}
  75200,                                  ! Humidity Indicating Conditions at Maximum Dry-Bulb {BasedOnField A3}
  101193,                                 ! Barometric Pressure {Pa}
  4.8,                                    ! Wind Speed {m/s}
  90,                                     ! Wind Direction {deg}
  0,                                      ! Sky Clearness
  0,                                      ! Rain Indicator
  0,                                      ! Snow Indicator
  21,                                     ! Day of Month
  8,                                      ! Month
  SummerDesignDay,                        ! Day Type
  0,                                      ! Daylight Saving Time Indicator
  Enthalpy,                               ! Humidity Indicating Type
  ,                                       ! Humidity Indicating Day Schedule Name
  DefaultMultipliers,                     ! Dry-Bulb Temperature Range Modifier Type
  ,                                       ! Dry-Bulb Temperature Range Modifier Schedule Name
  ASHRAETau,                              ! Solar Model Indicator
  ,                                       ! Beam Solar Day Schedule Name
  ,                                       ! Diffuse Solar Day Schedule Name
  0.411,                                  ! ASHRAE Taub {dimensionless}
  2.427;                                  ! ASHRAE Taud {dimensionless}

OS:ComponentData,
  {b3d1fdb6-4387-4672-b94e-801127864020}, ! Handle
  Component Data 1,                       ! Name
  {13b692e0-2a9e-409c-8d67-c251e1644bde}, ! UUID
  {09828562-ba3c-4610-b134-84b48f3ead49}, ! Version UUID
  1366307082,                             ! Creation Timestamp
  1366307082,                             ! Version Timestamp
  {bbb00e16-275d-4d7f-bc16-cb7dca074595}; ! Name of Object 1

