
OS:Version,
  {63321ec2-165c-42db-8f19-30546c178f1d}, ! Handle
  0.9.3;                                  ! Version Identifier

OS:SizingPeriod:DesignDay,
  {10f5ce8e-a03e-4c8c-b3c9-d51e1a068741}, ! Handle
  CEDAR_CITY Ann Hum_n 99.6% Condns DP=>MCDB, ! Name
  -10.9,                                  ! Maximum Dry-Bulb Temperature {C}
  0,                                      ! Daily Dry-Bulb Temperature Range {deltaC}
  -19.1,                                  ! Humidity Indicating Conditions at Maximum Dry-Bulb {BasedOnField A3}
  82379,                                  ! Barometric Pressure {Pa}
  1.1,                                    ! Wind Speed {m/s}
  60,                                     ! Wind Direction {deg}
  0,                                      ! Sky Clearness
  0,                                      ! Rain Indicator
  0,                                      ! Snow Indicator
  21,                                     ! Day of Month
  12,                                     ! Month
  WinterDesignDay,                        ! Day Type
  0,                                      ! Daylight Saving Time Indicator
  Dewpoint,                               ! Humidity Indicating Type
  ,                                       ! Humidity Indicating Day Schedule Name
  DefaultMultipliers,                     ! Dry-Bulb Temperature Range Modifier Type
  ,                                       ! Dry-Bulb Temperature Range Modifier Schedule Name
  ASHRAEClearSky;                         ! Solar Model Indicator

OS:ComponentData,
  {8bb8ed8b-7c5d-4157-a55a-1d24ae02b3f6}, ! Handle
  Component Data 1,                       ! Name
  {558be869-6da6-460e-a365-338cc367475b}, ! UUID
  {8fff54d8-e6cd-49a1-8bdf-de193677d30f}, ! Version UUID
  1366310948,                             ! Creation Timestamp
  1366310948,                             ! Version Timestamp
  {10f5ce8e-a03e-4c8c-b3c9-d51e1a068741}; ! Name of Object 1

