
OS:Version,
  {8c5c9486-9d39-4185-bca5-dc804341ff59}, ! Handle
  0.9.3;                                  ! Version Identifier

OS:SizingPeriod:DesignDay,
  {c4b29b69-9629-4480-b3fe-c310ffaba7d9}, ! Handle
  Aurora Municipal Ann Htg 99.6% Condns DB, ! Name
  -18.9,                                  ! Maximum Dry-Bulb Temperature {C}
  0,                                      ! Daily Dry-Bulb Temperature Range {deltaC}
  -18.9,                                  ! Humidity Indicating Conditions at Maximum Dry-Bulb {BasedOnField A3}
  98769,                                  ! Barometric Pressure {Pa}
  3.6,                                    ! Wind Speed {m/s}
  290,                                    ! Wind Direction {deg}
  0,                                      ! Sky Clearness
  0,                                      ! Rain Indicator
  0,                                      ! Snow Indicator
  21,                                     ! Day of Month
  1,                                      ! Month
  WinterDesignDay,                        ! Day Type
  0,                                      ! Daylight Saving Time Indicator
  Wetbulb,                                ! Humidity Indicating Type
  ,                                       ! Humidity Indicating Day Schedule Name
  DefaultMultipliers,                     ! Dry-Bulb Temperature Range Modifier Type
  ,                                       ! Dry-Bulb Temperature Range Modifier Schedule Name
  ASHRAEClearSky;                         ! Solar Model Indicator

OS:ComponentData,
  {2fdf578c-6a34-40da-8ce5-1134c0ad22f3}, ! Handle
  Component Data 1,                       ! Name
  {01b61d9e-d5af-4c29-81e1-04a5cd09fb07}, ! UUID
  {d723755c-1edf-486b-8b29-03d30281d880}, ! Version UUID
  1366307318,                             ! Creation Timestamp
  1366307318,                             ! Version Timestamp
  {c4b29b69-9629-4480-b3fe-c310ffaba7d9}; ! Name of Object 1

