
OS:Version,
  {4773e9ce-e768-474d-a98a-020bfbe1a925}, ! Handle
  0.9.3;                                  ! Version Identifier

OS:SizingPeriod:DesignDay,
  {354b68bc-fc0c-408c-a891-e5f3836575ba}, ! Handle
  Belmar Asc Ann Clg 2% Condns Enth=>MDB, ! Name
  27.7,                                   ! Maximum Dry-Bulb Temperature {C}
  8.9,                                    ! Daily Dry-Bulb Temperature Range {deltaC}
  68000,                                  ! Humidity Indicating Conditions at Maximum Dry-Bulb {BasedOnField A3}
  101013,                                 ! Barometric Pressure {Pa}
  4.6,                                    ! Wind Speed {m/s}
  280,                                    ! Wind Direction {deg}
  0,                                      ! Sky Clearness
  0,                                      ! Rain Indicator
  0,                                      ! Snow Indicator
  21,                                     ! Day of Month
  7,                                      ! Month
  SummerDesignDay,                        ! Day Type
  0,                                      ! Daylight Saving Time Indicator
  Enthalpy,                               ! Humidity Indicating Type
  ,                                       ! Humidity Indicating Day Schedule Name
  DefaultMultipliers,                     ! Dry-Bulb Temperature Range Modifier Type
  ,                                       ! Dry-Bulb Temperature Range Modifier Schedule Name
  ASHRAETau,                              ! Solar Model Indicator
  ,                                       ! Beam Solar Day Schedule Name
  ,                                       ! Diffuse Solar Day Schedule Name
  0.543,                                  ! ASHRAE Taub {dimensionless}
  1.8;                                    ! ASHRAE Taud {dimensionless}

OS:ComponentData,
  {e8fa1564-a4df-4266-a387-8c941282a0b6}, ! Handle
  Component Data 1,                       ! Name
  {0df98649-c491-463c-927e-020f287903c2}, ! UUID
  {2ca93bbf-fd63-4fc4-aed7-81cf05744ad0}, ! Version UUID
  1366309297,                             ! Creation Timestamp
  1366309297,                             ! Version Timestamp
  {354b68bc-fc0c-408c-a891-e5f3836575ba}; ! Name of Object 1

