
OS:Version,
  {b4917c74-ec0b-45b0-9d18-ed37ce085180}, ! Handle
  0.9.3;                                  ! Version Identifier

OS:SizingPeriod:DesignDay,
  {25eb1ad6-9614-4253-9cec-f04f11c2862f}, ! Handle
  Big Delta/Ft Greely Ann Clg .4% Condns WB=>MDB, ! Name
  23.5,                                   ! Maximum Dry-Bulb Temperature {C}
  9.5,                                    ! Daily Dry-Bulb Temperature Range {deltaC}
  15.7,                                   ! Humidity Indicating Conditions at Maximum Dry-Bulb {BasedOnField A3}
  96715,                                  ! Barometric Pressure {Pa}
  3.3,                                    ! Wind Speed {m/s}
  310,                                    ! Wind Direction {deg}
  0,                                      ! Sky Clearness
  0,                                      ! Rain Indicator
  0,                                      ! Snow Indicator
  21,                                     ! Day of Month
  7,                                      ! Month
  SummerDesignDay,                        ! Day Type
  0,                                      ! Daylight Saving Time Indicator
  Wetbulb,                                ! Humidity Indicating Type
  ,                                       ! Humidity Indicating Day Schedule Name
  DefaultMultipliers,                     ! Dry-Bulb Temperature Range Modifier Type
  ,                                       ! Dry-Bulb Temperature Range Modifier Schedule Name
  ASHRAETau,                              ! Solar Model Indicator
  ,                                       ! Beam Solar Day Schedule Name
  ,                                       ! Diffuse Solar Day Schedule Name
  0.398,                                  ! ASHRAE Taub {dimensionless}
  2.083;                                  ! ASHRAE Taud {dimensionless}

OS:ComponentData,
  {a0d3f3de-e03d-4e98-9974-329860deb5e0}, ! Handle
  Component Data 1,                       ! Name
  {f22aaebd-679f-4c8a-9e0f-b86d9f1d3fa1}, ! UUID
  {2bd4b614-ad9e-44b5-abff-545ba0d238be}, ! Version UUID
  1366304772,                             ! Creation Timestamp
  1366304772,                             ! Version Timestamp
  {25eb1ad6-9614-4253-9cec-f04f11c2862f}; ! Name of Object 1

