
OS:Version,
  {c7895ce3-7459-4bac-b9be-ee70ec3f9505}, ! Handle
  0.9.3;                                  ! Version Identifier

OS:SizingPeriod:DesignDay,
  {64c85cf8-1f7a-4bf8-8fe4-e846860724d2}, ! Handle
  Fargo Hector International Ap Ann Clg 2% Condns WB=>MDB, ! Name
  27.5,                                   ! Maximum Dry-Bulb Temperature {C}
  11.8,                                   ! Daily Dry-Bulb Temperature Range {deltaC}
  21.9,                                   ! Humidity Indicating Conditions at Maximum Dry-Bulb {BasedOnField A3}
  98076,                                  ! Barometric Pressure {Pa}
  6.5,                                    ! Wind Speed {m/s}
  170,                                    ! Wind Direction {deg}
  0,                                      ! Sky Clearness
  0,                                      ! Rain Indicator
  0,                                      ! Snow Indicator
  21,                                     ! Day of Month
  7,                                      ! Month
  SummerDesignDay,                        ! Day Type
  0,                                      ! Daylight Saving Time Indicator
  Wetbulb,                                ! Humidity Indicating Type
  ,                                       ! Humidity Indicating Day Schedule Name
  DefaultMultipliers,                     ! Dry-Bulb Temperature Range Modifier Type
  ,                                       ! Dry-Bulb Temperature Range Modifier Schedule Name
  ASHRAETau,                              ! Solar Model Indicator
  ,                                       ! Beam Solar Day Schedule Name
  ,                                       ! Diffuse Solar Day Schedule Name
  0.396,                                  ! ASHRAE Taub {dimensionless}
  2.253;                                  ! ASHRAE Taud {dimensionless}

OS:ComponentData,
  {955faadc-45f3-4608-927b-774553fa4a9e}, ! Handle
  Component Data 1,                       ! Name
  {cea1cf47-e4b8-4138-a882-ef0f92b91d59}, ! UUID
  {dd8f30d9-c5b9-42b1-85ab-7dd247bc6bcc}, ! Version UUID
  1366309032,                             ! Creation Timestamp
  1366309032,                             ! Version Timestamp
  {64c85cf8-1f7a-4bf8-8fe4-e846860724d2}; ! Name of Object 1

