
OS:Version,
  {d14a898f-cb67-4dda-b860-b93e34bac557}, ! Handle
  0.9.3;                                  ! Version Identifier

OS:SizingPeriod:DesignDay,
  {820c733a-cbd2-432c-a714-5277a1a4f98f}, ! Handle
  Glenwood  Asos Ann Hum_n 99.6% Condns DP=>MCDB, ! Name
  -27,                                    ! Maximum Dry-Bulb Temperature {C}
  0,                                      ! Daily Dry-Bulb Temperature Range {deltaC}
  -31,                                    ! Humidity Indicating Conditions at Maximum Dry-Bulb {BasedOnField A3}
  96322,                                  ! Barometric Pressure {Pa}
  3.5,                                    ! Wind Speed {m/s}
  260,                                    ! Wind Direction {deg}
  0,                                      ! Sky Clearness
  0,                                      ! Rain Indicator
  0,                                      ! Snow Indicator
  21,                                     ! Day of Month
  1,                                      ! Month
  WinterDesignDay,                        ! Day Type
  0,                                      ! Daylight Saving Time Indicator
  Dewpoint,                               ! Humidity Indicating Type
  ,                                       ! Humidity Indicating Day Schedule Name
  DefaultMultipliers,                     ! Dry-Bulb Temperature Range Modifier Type
  ,                                       ! Dry-Bulb Temperature Range Modifier Schedule Name
  ASHRAEClearSky;                         ! Solar Model Indicator

OS:ComponentData,
  {49fa499a-1dba-4509-800b-5b15c081e5a9}, ! Handle
  Component Data 1,                       ! Name
  {3e6fa082-c04e-4255-af80-0bbfa707ac64}, ! UUID
  {62b232ac-d6e3-4ba5-a4c1-9a2607df71e9}, ! Version UUID
  1366308241,                             ! Creation Timestamp
  1366308241,                             ! Version Timestamp
  {820c733a-cbd2-432c-a714-5277a1a4f98f}; ! Name of Object 1

