
OS:Version,
  {328089c6-30eb-4fbf-8601-5f46cb09a3e1}, ! Handle
  0.9.3;                                  ! Version Identifier

OS:SizingPeriod:DesignDay,
  {168abc34-b24f-49b1-9c33-0a2c614e13eb}, ! Handle
  Glasgow Intl Arpt Ann Clg .4% Condns DP=>MDB, ! Name
  23.6,                                   ! Maximum Dry-Bulb Temperature {C}
  14.5,                                   ! Daily Dry-Bulb Temperature Range {deltaC}
  17.4,                                   ! Humidity Indicating Conditions at Maximum Dry-Bulb {BasedOnField A3}
  93205,                                  ! Barometric Pressure {Pa}
  5.4,                                    ! Wind Speed {m/s}
  150,                                    ! Wind Direction {deg}
  0,                                      ! Sky Clearness
  0,                                      ! Rain Indicator
  0,                                      ! Snow Indicator
  21,                                     ! Day of Month
  7,                                      ! Month
  SummerDesignDay,                        ! Day Type
  0,                                      ! Daylight Saving Time Indicator
  Dewpoint,                               ! Humidity Indicating Type
  ,                                       ! Humidity Indicating Day Schedule Name
  DefaultMultipliers,                     ! Dry-Bulb Temperature Range Modifier Type
  ,                                       ! Dry-Bulb Temperature Range Modifier Schedule Name
  ASHRAETau,                              ! Solar Model Indicator
  ,                                       ! Beam Solar Day Schedule Name
  ,                                       ! Diffuse Solar Day Schedule Name
  0.424,                                  ! ASHRAE Taub {dimensionless}
  2.044;                                  ! ASHRAE Taud {dimensionless}

OS:ComponentData,
  {68560e60-ec18-4612-9566-cb90ecf23ad7}, ! Handle
  Component Data 1,                       ! Name
  {8920582e-b421-4be9-aa71-848c8d723ad8}, ! UUID
  {f4794f3a-f624-4128-928e-f775ef1b0211}, ! Version UUID
  1366308764,                             ! Creation Timestamp
  1366308764,                             ! Version Timestamp
  {168abc34-b24f-49b1-9c33-0a2c614e13eb}; ! Name of Object 1

