
OS:Version,
  {4f9d9b54-7f2f-4864-a22d-a1dd32169ee0}, ! Handle
  0.9.3;                                  ! Version Identifier

OS:SizingPeriod:DesignDay,
  {7ce53f6b-2b56-4514-bfc5-0ab9c0171839}, ! Handle
  Laconia Muni  Awos Ann Htg 99.6% Condns DB, ! Name
  -20.1,                                  ! Maximum Dry-Bulb Temperature {C}
  0,                                      ! Daily Dry-Bulb Temperature Range {deltaC}
  -20.1,                                  ! Humidity Indicating Conditions at Maximum Dry-Bulb {BasedOnField A3}
  99347,                                  ! Barometric Pressure {Pa}
  2.7,                                    ! Wind Speed {m/s}
  260,                                    ! Wind Direction {deg}
  0,                                      ! Sky Clearness
  0,                                      ! Rain Indicator
  0,                                      ! Snow Indicator
  21,                                     ! Day of Month
  1,                                      ! Month
  WinterDesignDay,                        ! Day Type
  0,                                      ! Daylight Saving Time Indicator
  Wetbulb,                                ! Humidity Indicating Type
  ,                                       ! Humidity Indicating Day Schedule Name
  DefaultMultipliers,                     ! Dry-Bulb Temperature Range Modifier Type
  ,                                       ! Dry-Bulb Temperature Range Modifier Schedule Name
  ASHRAEClearSky;                         ! Solar Model Indicator

OS:ComponentData,
  {bdfd1b53-ee49-4acb-a3f9-53ab203e6011}, ! Handle
  Component Data 1,                       ! Name
  {3597adad-fe2e-4251-865f-a5c735094c85}, ! UUID
  {aca2e885-19f6-4bbf-93f6-91f151e7adc2}, ! Version UUID
  1366309242,                             ! Creation Timestamp
  1366309242,                             ! Version Timestamp
  {7ce53f6b-2b56-4514-bfc5-0ab9c0171839}; ! Name of Object 1

