
OS:Version,
  {3c4a74d1-546f-4ebc-aba1-53c1edea8e7c}, ! Handle
  0.9.3;                                  ! Version Identifier

OS:SizingPeriod:DesignDay,
  {8cd9dae9-ec64-4c90-b41c-0280a6d90450}, ! Handle
  LANSING Ann Clg 2% Condns Enth=>MDB,    ! Name
  27.2,                                   ! Maximum Dry-Bulb Temperature {C}
  12,                                     ! Daily Dry-Bulb Temperature Range {deltaC}
  68100,                                  ! Humidity Indicating Conditions at Maximum Dry-Bulb {BasedOnField A3}
  98287,                                  ! Barometric Pressure {Pa}
  5.6,                                    ! Wind Speed {m/s}
  240,                                    ! Wind Direction {deg}
  0,                                      ! Sky Clearness
  0,                                      ! Rain Indicator
  0,                                      ! Snow Indicator
  21,                                     ! Day of Month
  7,                                      ! Month
  SummerDesignDay,                        ! Day Type
  0,                                      ! Daylight Saving Time Indicator
  Enthalpy,                               ! Humidity Indicating Type
  ,                                       ! Humidity Indicating Day Schedule Name
  DefaultMultipliers,                     ! Dry-Bulb Temperature Range Modifier Type
  ,                                       ! Dry-Bulb Temperature Range Modifier Schedule Name
  ASHRAETau,                              ! Solar Model Indicator
  ,                                       ! Beam Solar Day Schedule Name
  ,                                       ! Diffuse Solar Day Schedule Name
  0.429,                                  ! ASHRAE Taub {dimensionless}
  2.133;                                  ! ASHRAE Taud {dimensionless}

OS:ComponentData,
  {ebcb2029-72d6-4747-bf48-aa7ab1d283c5}, ! Handle
  Component Data 1,                       ! Name
  {92b7f4c2-6dda-4cda-97b5-df8e1086f333}, ! UUID
  {b5deeb4a-3b79-448e-b875-5136b3be4ca2}, ! Version UUID
  1366308057,                             ! Creation Timestamp
  1366308057,                             ! Version Timestamp
  {8cd9dae9-ec64-4c90-b41c-0280a6d90450}; ! Name of Object 1

