
OS:Version,
  {2d55df03-53ba-40f2-8b40-5f78cfc4de91}, ! Handle
  0.9.3;                                  ! Version Identifier

OS:SizingPeriod:DesignDay,
  {f6d9bed4-58a1-4487-8677-eda3e10f83ef}, ! Handle
  Charlotte Ann Clg 2% Condns Enth=>MDB,  ! Name
  29.7,                                   ! Maximum Dry-Bulb Temperature {C}
  10.1,                                   ! Daily Dry-Bulb Temperature Range {deltaC}
  73000,                                  ! Humidity Indicating Conditions at Maximum Dry-Bulb {BasedOnField A3}
  98545,                                  ! Barometric Pressure {Pa}
  3.3,                                    ! Wind Speed {m/s}
  240,                                    ! Wind Direction {deg}
  0,                                      ! Sky Clearness
  0,                                      ! Rain Indicator
  0,                                      ! Snow Indicator
  21,                                     ! Day of Month
  7,                                      ! Month
  SummerDesignDay,                        ! Day Type
  0,                                      ! Daylight Saving Time Indicator
  Enthalpy,                               ! Humidity Indicating Type
  ,                                       ! Humidity Indicating Day Schedule Name
  DefaultMultipliers,                     ! Dry-Bulb Temperature Range Modifier Type
  ,                                       ! Dry-Bulb Temperature Range Modifier Schedule Name
  ASHRAETau,                              ! Solar Model Indicator
  ,                                       ! Beam Solar Day Schedule Name
  ,                                       ! Diffuse Solar Day Schedule Name
  0.557,                                  ! ASHRAE Taub {dimensionless}
  1.762;                                  ! ASHRAE Taud {dimensionless}

OS:ComponentData,
  {e74da5d4-3d13-491c-b82d-07fcd0900296}, ! Handle
  Component Data 1,                       ! Name
  {5a28ee9e-448e-4116-9af8-ee47276148f8}, ! UUID
  {1dac2488-a30d-45eb-9a5e-6087bac7ce2b}, ! Version UUID
  1366308886,                             ! Creation Timestamp
  1366308886,                             ! Version Timestamp
  {f6d9bed4-58a1-4487-8677-eda3e10f83ef}; ! Name of Object 1

