
OS:Version,
  {479f8e40-699d-4abc-9528-37f983a5d328}, ! Handle
  0.9.3;                                  ! Version Identifier

OS:SizingPeriod:DesignDay,
  {deeb96eb-d67d-4905-9ba9-5355800f227f}, ! Handle
  Hilo International Ap Ann Clg 2% Condns WB=>MDB, ! Name
  27.2,                                   ! Maximum Dry-Bulb Temperature {C}
  7,                                      ! Daily Dry-Bulb Temperature Range {deltaC}
  24.1,                                   ! Humidity Indicating Conditions at Maximum Dry-Bulb {BasedOnField A3}
  101217,                                 ! Barometric Pressure {Pa}
  4.8,                                    ! Wind Speed {m/s}
  90,                                     ! Wind Direction {deg}
  0,                                      ! Sky Clearness
  0,                                      ! Rain Indicator
  0,                                      ! Snow Indicator
  21,                                     ! Day of Month
  8,                                      ! Month
  SummerDesignDay,                        ! Day Type
  0,                                      ! Daylight Saving Time Indicator
  Wetbulb,                                ! Humidity Indicating Type
  ,                                       ! Humidity Indicating Day Schedule Name
  DefaultMultipliers,                     ! Dry-Bulb Temperature Range Modifier Type
  ,                                       ! Dry-Bulb Temperature Range Modifier Schedule Name
  ASHRAETau,                              ! Solar Model Indicator
  ,                                       ! Beam Solar Day Schedule Name
  ,                                       ! Diffuse Solar Day Schedule Name
  0.411,                                  ! ASHRAE Taub {dimensionless}
  2.427;                                  ! ASHRAE Taud {dimensionless}

OS:ComponentData,
  {5e38240b-40ed-45b2-b9ff-93a2d6d1a01d}, ! Handle
  Component Data 1,                       ! Name
  {3178daf6-3a75-4401-b270-a189e58521d1}, ! UUID
  {5a81559c-539d-4073-94a5-fab26913d70d}, ! Version UUID
  1366307084,                             ! Creation Timestamp
  1366307084,                             ! Version Timestamp
  {deeb96eb-d67d-4905-9ba9-5355800f227f}; ! Name of Object 1

