
OS:Version,
  {83dfc10e-0395-41d4-9e09-1df5fe7a5aa0}, ! Handle
  0.9.3;                                  ! Version Identifier

OS:SizingPeriod:DesignDay,
  {5c8775ca-c33d-4402-97b6-07a3188e4874}, ! Handle
  Bowling Green Warren Co Ap Ann Htg 99.6% Condns DB, ! Name
  -13.1,                                  ! Maximum Dry-Bulb Temperature {C}
  0,                                      ! Daily Dry-Bulb Temperature Range {deltaC}
  -13.1,                                  ! Humidity Indicating Conditions at Maximum Dry-Bulb {BasedOnField A3}
  99406,                                  ! Barometric Pressure {Pa}
  2.9,                                    ! Wind Speed {m/s}
  340,                                    ! Wind Direction {deg}
  0,                                      ! Sky Clearness
  0,                                      ! Rain Indicator
  0,                                      ! Snow Indicator
  21,                                     ! Day of Month
  1,                                      ! Month
  WinterDesignDay,                        ! Day Type
  0,                                      ! Daylight Saving Time Indicator
  Wetbulb,                                ! Humidity Indicating Type
  ,                                       ! Humidity Indicating Day Schedule Name
  DefaultMultipliers,                     ! Dry-Bulb Temperature Range Modifier Type
  ,                                       ! Dry-Bulb Temperature Range Modifier Schedule Name
  ASHRAEClearSky;                         ! Solar Model Indicator

OS:ComponentData,
  {f5379ea6-0f93-4ba0-8289-2fc548b3772c}, ! Handle
  Component Data 1,                       ! Name
  {55f8f0ac-a273-4c70-9b97-c9f7cc16d96c}, ! UUID
  {9bd7eb85-edb3-4cc2-a15d-2847c35ac20f}, ! Version UUID
  1366307610,                             ! Creation Timestamp
  1366307610,                             ! Version Timestamp
  {5c8775ca-c33d-4402-97b6-07a3188e4874}; ! Name of Object 1

