
OS:Version,
  {a3389384-3de0-4402-8d53-523bcd5ff3c1}, ! Handle
  0.9.3;                                  ! Version Identifier

OS:SizingPeriod:DesignDay,
  {c2f087be-687b-418d-b3ce-add2dc50535d}, ! Handle
  Joplin Municipal Ap Ann Clg 2% Condns DP=>MDB, ! Name
  28.4,                                   ! Maximum Dry-Bulb Temperature {C}
  10.8,                                   ! Daily Dry-Bulb Temperature Range {deltaC}
  22.8,                                   ! Humidity Indicating Conditions at Maximum Dry-Bulb {BasedOnField A3}
  97808,                                  ! Barometric Pressure {Pa}
  4.8,                                    ! Wind Speed {m/s}
  210,                                    ! Wind Direction {deg}
  0,                                      ! Sky Clearness
  0,                                      ! Rain Indicator
  0,                                      ! Snow Indicator
  21,                                     ! Day of Month
  7,                                      ! Month
  SummerDesignDay,                        ! Day Type
  0,                                      ! Daylight Saving Time Indicator
  Dewpoint,                               ! Humidity Indicating Type
  ,                                       ! Humidity Indicating Day Schedule Name
  DefaultMultipliers,                     ! Dry-Bulb Temperature Range Modifier Type
  ,                                       ! Dry-Bulb Temperature Range Modifier Schedule Name
  ASHRAETau,                              ! Solar Model Indicator
  ,                                       ! Beam Solar Day Schedule Name
  ,                                       ! Diffuse Solar Day Schedule Name
  0.446,                                  ! ASHRAE Taub {dimensionless}
  2.122;                                  ! ASHRAE Taud {dimensionless}

OS:ComponentData,
  {f7dcd777-8203-4713-9fc6-5f5b0c76654d}, ! Handle
  Component Data 1,                       ! Name
  {4b3ff3b5-719f-4e15-9eb0-442f55f87170}, ! UUID
  {cba17eee-5759-40f0-b12e-dc6b83bb3623}, ! Version UUID
  1366308509,                             ! Creation Timestamp
  1366308509,                             ! Version Timestamp
  {c2f087be-687b-418d-b3ce-add2dc50535d}; ! Name of Object 1

