
OS:Version,
  {5f7be70e-f816-4745-9191-ed6ab6a6a375}, ! Handle
  0.9.3;                                  ! Version Identifier

OS:SizingPeriod:DesignDay,
  {28610514-c246-4536-a80f-a88bc08ba0db}, ! Handle
  Greer/Greenville Ann Clg 2% Condns DB=>MWB, ! Name
  31.7,                                   ! Maximum Dry-Bulb Temperature {C}
  10.6,                                   ! Daily Dry-Bulb Temperature Range {deltaC}
  22.9,                                   ! Humidity Indicating Conditions at Maximum Dry-Bulb {BasedOnField A3}
  97819,                                  ! Barometric Pressure {Pa}
  3.6,                                    ! Wind Speed {m/s}
  230,                                    ! Wind Direction {deg}
  0,                                      ! Sky Clearness
  0,                                      ! Rain Indicator
  0,                                      ! Snow Indicator
  21,                                     ! Day of Month
  7,                                      ! Month
  SummerDesignDay,                        ! Day Type
  0,                                      ! Daylight Saving Time Indicator
  Wetbulb,                                ! Humidity Indicating Type
  ,                                       ! Humidity Indicating Day Schedule Name
  DefaultMultipliers,                     ! Dry-Bulb Temperature Range Modifier Type
  ,                                       ! Dry-Bulb Temperature Range Modifier Schedule Name
  ASHRAETau,                              ! Solar Model Indicator
  ,                                       ! Beam Solar Day Schedule Name
  ,                                       ! Diffuse Solar Day Schedule Name
  0.545,                                  ! ASHRAE Taub {dimensionless}
  1.796;                                  ! ASHRAE Taud {dimensionless}

OS:ComponentData,
  {33f5706f-0bd4-4449-9ee1-fcc027a6700a}, ! Handle
  Component Data 1,                       ! Name
  {8471f9b9-6bed-4170-944b-9dcc64d91948}, ! UUID
  {befbdc75-7443-4678-a169-fa143ced0211}, ! Version UUID
  1366310363,                             ! Creation Timestamp
  1366310363,                             ! Version Timestamp
  {28610514-c246-4536-a80f-a88bc08ba0db}; ! Name of Object 1

