
OS:Version,
  {643575b7-e6a9-48a5-94bf-49f1983c9521}, ! Handle
  0.9.3;                                  ! Version Identifier

OS:SizingPeriod:DesignDay,
  {52077466-a00e-4d4d-b806-ac1a137dac87}, ! Handle
  Akron/Canton Ann Clg 2% Condns WB=>MDB, ! Name
  26.7,                                   ! Maximum Dry-Bulb Temperature {C}
  10.4,                                   ! Daily Dry-Bulb Temperature Range {deltaC}
  22.5,                                   ! Humidity Indicating Conditions at Maximum Dry-Bulb {BasedOnField A3}
  96877,                                  ! Barometric Pressure {Pa}
  4.6,                                    ! Wind Speed {m/s}
  230,                                    ! Wind Direction {deg}
  0,                                      ! Sky Clearness
  0,                                      ! Rain Indicator
  0,                                      ! Snow Indicator
  21,                                     ! Day of Month
  7,                                      ! Month
  SummerDesignDay,                        ! Day Type
  0,                                      ! Daylight Saving Time Indicator
  Wetbulb,                                ! Humidity Indicating Type
  ,                                       ! Humidity Indicating Day Schedule Name
  DefaultMultipliers,                     ! Dry-Bulb Temperature Range Modifier Type
  ,                                       ! Dry-Bulb Temperature Range Modifier Schedule Name
  ASHRAETau,                              ! Solar Model Indicator
  ,                                       ! Beam Solar Day Schedule Name
  ,                                       ! Diffuse Solar Day Schedule Name
  0.464,                                  ! ASHRAE Taub {dimensionless}
  1.994;                                  ! ASHRAE Taud {dimensionless}

OS:ComponentData,
  {2e5216a5-0154-44f0-81cf-96a8698809a1}, ! Handle
  Component Data 1,                       ! Name
  {3ab342d8-9f7a-4292-8129-0c87e5dfec0a}, ! UUID
  {7384a991-62b6-4c36-9ff6-3b443aabb57b}, ! Version UUID
  1366309766,                             ! Creation Timestamp
  1366309766,                             ! Version Timestamp
  {52077466-a00e-4d4d-b806-ac1a137dac87}; ! Name of Object 1

