
OS:Version,
  {2aa1ff74-b440-47c4-816b-87eff8ccf52d}, ! Handle
  0.9.3;                                  ! Version Identifier

OS:SizingPeriod:DesignDay,
  {3fef00ca-2584-426c-959d-d32b28a9365f}, ! Handle
  Grand Forks Af Ann Clg .4% Condns WB=>MDB, ! Name
  29.1,                                   ! Maximum Dry-Bulb Temperature {C}
  12.4,                                   ! Daily Dry-Bulb Temperature Range {deltaC}
  24.6,                                   ! Humidity Indicating Conditions at Maximum Dry-Bulb {BasedOnField A3}
  98053,                                  ! Barometric Pressure {Pa}
  5.8,                                    ! Wind Speed {m/s}
  180,                                    ! Wind Direction {deg}
  0,                                      ! Sky Clearness
  0,                                      ! Rain Indicator
  0,                                      ! Snow Indicator
  21,                                     ! Day of Month
  7,                                      ! Month
  SummerDesignDay,                        ! Day Type
  0,                                      ! Daylight Saving Time Indicator
  Wetbulb,                                ! Humidity Indicating Type
  ,                                       ! Humidity Indicating Day Schedule Name
  DefaultMultipliers,                     ! Dry-Bulb Temperature Range Modifier Type
  ,                                       ! Dry-Bulb Temperature Range Modifier Schedule Name
  ASHRAETau,                              ! Solar Model Indicator
  ,                                       ! Beam Solar Day Schedule Name
  ,                                       ! Diffuse Solar Day Schedule Name
  0.393,                                  ! ASHRAE Taub {dimensionless}
  2.263;                                  ! ASHRAE Taud {dimensionless}

OS:ComponentData,
  {26d67faf-c103-4d4f-9406-571dea5211aa}, ! Handle
  Component Data 1,                       ! Name
  {e9632d89-4ee6-440e-a761-855e43209c34}, ! UUID
  {f6879e89-e45c-468c-a8ba-a05521b11dc8}, ! Version UUID
  1366309042,                             ! Creation Timestamp
  1366309042,                             ! Version Timestamp
  {3fef00ca-2584-426c-959d-d32b28a9365f}; ! Name of Object 1

