
OS:Version,
  {1fca1e64-1a2a-4b77-b6f4-563874b13274}, ! Handle
  0.9.3;                                  ! Version Identifier

OS:SizingPeriod:DesignDay,
  {f714a250-2763-400e-adbb-b290bd9dfb1c}, ! Handle
  Gadsen Muni  Awos Ann Clg 2% Condns Enth=>MDB, ! Name
  29.9,                                   ! Maximum Dry-Bulb Temperature {C}
  10.9,                                   ! Daily Dry-Bulb Temperature Range {deltaC}
  74500,                                  ! Humidity Indicating Conditions at Maximum Dry-Bulb {BasedOnField A3}
  99264,                                  ! Barometric Pressure {Pa}
  3,                                      ! Wind Speed {m/s}
  300,                                    ! Wind Direction {deg}
  0,                                      ! Sky Clearness
  0,                                      ! Rain Indicator
  0,                                      ! Snow Indicator
  21,                                     ! Day of Month
  7,                                      ! Month
  SummerDesignDay,                        ! Day Type
  0,                                      ! Daylight Saving Time Indicator
  Enthalpy,                               ! Humidity Indicating Type
  ,                                       ! Humidity Indicating Day Schedule Name
  DefaultMultipliers,                     ! Dry-Bulb Temperature Range Modifier Type
  ,                                       ! Dry-Bulb Temperature Range Modifier Schedule Name
  ASHRAETau,                              ! Solar Model Indicator
  ,                                       ! Beam Solar Day Schedule Name
  ,                                       ! Diffuse Solar Day Schedule Name
  0.58,                                   ! ASHRAE Taub {dimensionless}
  1.728;                                  ! ASHRAE Taud {dimensionless}

OS:ComponentData,
  {70faf40e-faa9-4c06-b1b6-4595210b19bb}, ! Handle
  Component Data 1,                       ! Name
  {1a8663cb-80bf-4e46-9f58-8a223422c3aa}, ! UUID
  {03003937-2a4b-4358-8868-33b2885a2d37}, ! Version UUID
  1366305664,                             ! Creation Timestamp
  1366305664,                             ! Version Timestamp
  {f714a250-2763-400e-adbb-b290bd9dfb1c}; ! Name of Object 1

