
OS:Version,
  {d306db91-66fe-467b-9fda-b4875810cd1b}, ! Handle
  0.9.3;                                  ! Version Identifier

OS:SizingPeriod:DesignDay,
  {05506705-d0a4-467f-a852-1043c505101c}, ! Handle
  Homer Arpt Ann Clg 1% Condns DP=>MDB,   ! Name
  14.9,                                   ! Maximum Dry-Bulb Temperature {C}
  6.4,                                    ! Daily Dry-Bulb Temperature Range {deltaC}
  12.1,                                   ! Humidity Indicating Conditions at Maximum Dry-Bulb {BasedOnField A3}
  101001,                                 ! Barometric Pressure {Pa}
  4.4,                                    ! Wind Speed {m/s}
  250,                                    ! Wind Direction {deg}
  0,                                      ! Sky Clearness
  0,                                      ! Rain Indicator
  0,                                      ! Snow Indicator
  21,                                     ! Day of Month
  7,                                      ! Month
  SummerDesignDay,                        ! Day Type
  0,                                      ! Daylight Saving Time Indicator
  Dewpoint,                               ! Humidity Indicating Type
  ,                                       ! Humidity Indicating Day Schedule Name
  DefaultMultipliers,                     ! Dry-Bulb Temperature Range Modifier Type
  ,                                       ! Dry-Bulb Temperature Range Modifier Schedule Name
  ASHRAETau,                              ! Solar Model Indicator
  ,                                       ! Beam Solar Day Schedule Name
  ,                                       ! Diffuse Solar Day Schedule Name
  0.376,                                  ! ASHRAE Taub {dimensionless}
  2.236;                                  ! ASHRAE Taud {dimensionless}

