
OS:Version,
  {dd881bd1-d894-427b-9d30-c8244ecb7a5d}, ! Handle
  0.9.3;                                  ! Version Identifier

OS:SizingPeriod:DesignDay,
  {72cd3a6d-f15a-46b8-bf06-2103500cc666}, ! Handle
  Cherry Point Mcas Ann Clg 2% Condns DP=>MDB, ! Name
  28.3,                                   ! Maximum Dry-Bulb Temperature {C}
  8.7,                                    ! Daily Dry-Bulb Temperature Range {deltaC}
  24.4,                                   ! Humidity Indicating Conditions at Maximum Dry-Bulb {BasedOnField A3}
  101193,                                 ! Barometric Pressure {Pa}
  3.4,                                    ! Wind Speed {m/s}
  210,                                    ! Wind Direction {deg}
  0,                                      ! Sky Clearness
  0,                                      ! Rain Indicator
  0,                                      ! Snow Indicator
  21,                                     ! Day of Month
  7,                                      ! Month
  SummerDesignDay,                        ! Day Type
  0,                                      ! Daylight Saving Time Indicator
  Dewpoint,                               ! Humidity Indicating Type
  ,                                       ! Humidity Indicating Day Schedule Name
  DefaultMultipliers,                     ! Dry-Bulb Temperature Range Modifier Type
  ,                                       ! Dry-Bulb Temperature Range Modifier Schedule Name
  ASHRAETau,                              ! Solar Model Indicator
  ,                                       ! Beam Solar Day Schedule Name
  ,                                       ! Diffuse Solar Day Schedule Name
  0.581,                                  ! ASHRAE Taub {dimensionless}
  1.748;                                  ! ASHRAE Taud {dimensionless}

OS:ComponentData,
  {59ee6589-a113-4301-8e15-d80bffccaafa}, ! Handle
  Component Data 1,                       ! Name
  {d8e72159-700e-4137-ab9c-c1aab4d632a3}, ! UUID
  {28679f46-24ee-4a52-9640-5819d6074e5e}, ! Version UUID
  1366308906,                             ! Creation Timestamp
  1366308906,                             ! Version Timestamp
  {72cd3a6d-f15a-46b8-bf06-2103500cc666}; ! Name of Object 1

