
OS:Version,
  {c8fe26a8-ff57-4857-8fb1-36ff73c73694}, ! Handle
  0.9.3;                                  ! Version Identifier

OS:SizingPeriod:DesignDay,
  {9eb6620c-bb4a-4d9d-8b6c-f124079e4358}, ! Handle
  Long Beach Daugherty Fld Ann Clg .4% Condns WB=>MDB, ! Name
  28.8,                                   ! Maximum Dry-Bulb Temperature {C}
  9.5,                                    ! Daily Dry-Bulb Temperature Range {deltaC}
  22.5,                                   ! Humidity Indicating Conditions at Maximum Dry-Bulb {BasedOnField A3}
  101229,                                 ! Barometric Pressure {Pa}
  4.1,                                    ! Wind Speed {m/s}
  280,                                    ! Wind Direction {deg}
  0,                                      ! Sky Clearness
  0,                                      ! Rain Indicator
  0,                                      ! Snow Indicator
  21,                                     ! Day of Month
  8,                                      ! Month
  SummerDesignDay,                        ! Day Type
  0,                                      ! Daylight Saving Time Indicator
  Wetbulb,                                ! Humidity Indicating Type
  ,                                       ! Humidity Indicating Day Schedule Name
  DefaultMultipliers,                     ! Dry-Bulb Temperature Range Modifier Type
  ,                                       ! Dry-Bulb Temperature Range Modifier Schedule Name
  ASHRAETau,                              ! Solar Model Indicator
  ,                                       ! Beam Solar Day Schedule Name
  ,                                       ! Diffuse Solar Day Schedule Name
  0.45,                                   ! ASHRAE Taub {dimensionless}
  2.074;                                  ! ASHRAE Taud {dimensionless}

OS:ComponentData,
  {7a695486-40e2-4c80-ab24-5ae2db643596}, ! Handle
  Component Data 1,                       ! Name
  {9df7349c-adcd-4948-a07c-f958a8d222c1}, ! UUID
  {e3c22297-ec8d-4365-a752-1d29a689c280}, ! Version UUID
  1366306472,                             ! Creation Timestamp
  1366306472,                             ! Version Timestamp
  {9eb6620c-bb4a-4d9d-8b6c-f124079e4358}; ! Name of Object 1

