
OS:Version,
  {7ee8f1a4-8dcc-4d76-bd0a-682baeb86c02}, ! Handle
  0.9.3;                                  ! Version Identifier

OS:SizingPeriod:DesignDay,
  {a2b455b4-d070-4d7c-8d2a-1ce2257b2714}, ! Handle
  Billings Ann Htg 99.6% Condns DB,       ! Name
  -24.2,                                  ! Maximum Dry-Bulb Temperature {C}
  0,                                      ! Daily Dry-Bulb Temperature Range {deltaC}
  -24.2,                                  ! Humidity Indicating Conditions at Maximum Dry-Bulb {BasedOnField A3}
  88919,                                  ! Barometric Pressure {Pa}
  3.9,                                    ! Wind Speed {m/s}
  20,                                     ! Wind Direction {deg}
  0,                                      ! Sky Clearness
  0,                                      ! Rain Indicator
  0,                                      ! Snow Indicator
  21,                                     ! Day of Month
  1,                                      ! Month
  WinterDesignDay,                        ! Day Type
  0,                                      ! Daylight Saving Time Indicator
  Wetbulb,                                ! Humidity Indicating Type
  ,                                       ! Humidity Indicating Day Schedule Name
  DefaultMultipliers,                     ! Dry-Bulb Temperature Range Modifier Type
  ,                                       ! Dry-Bulb Temperature Range Modifier Schedule Name
  ASHRAEClearSky;                         ! Solar Model Indicator

OS:ComponentData,
  {d8a97b0a-109e-4474-af7c-ce4af4fae8cc}, ! Handle
  Component Data 1,                       ! Name
  {643cc68d-b510-4b91-9eda-2bcb8e05b664}, ! UUID
  {7deee1b5-e6b2-4473-8530-a83dcc73f363}, ! Version UUID
  1366308697,                             ! Creation Timestamp
  1366308697,                             ! Version Timestamp
  {a2b455b4-d070-4d7c-8d2a-1ce2257b2714}; ! Name of Object 1

