
OS:Version,
  {73304628-e739-446d-8727-f46cc2541614}, ! Handle
  0.9.3;                                  ! Version Identifier

OS:SizingPeriod:DesignDay,
  {63959989-078a-49d8-8ad1-e60f88f1634f}, ! Handle
  Helena Ann Clg 2% Condns DP=>MDB,       ! Name
  19.6,                                   ! Maximum Dry-Bulb Temperature {C}
  16.1,                                   ! Daily Dry-Bulb Temperature Range {deltaC}
  12.2,                                   ! Humidity Indicating Conditions at Maximum Dry-Bulb {BasedOnField A3}
  87844,                                  ! Barometric Pressure {Pa}
  4.9,                                    ! Wind Speed {m/s}
  290,                                    ! Wind Direction {deg}
  0,                                      ! Sky Clearness
  0,                                      ! Rain Indicator
  0,                                      ! Snow Indicator
  21,                                     ! Day of Month
  7,                                      ! Month
  SummerDesignDay,                        ! Day Type
  0,                                      ! Daylight Saving Time Indicator
  Dewpoint,                               ! Humidity Indicating Type
  ,                                       ! Humidity Indicating Day Schedule Name
  DefaultMultipliers,                     ! Dry-Bulb Temperature Range Modifier Type
  ,                                       ! Dry-Bulb Temperature Range Modifier Schedule Name
  ASHRAETau,                              ! Solar Model Indicator
  ,                                       ! Beam Solar Day Schedule Name
  ,                                       ! Diffuse Solar Day Schedule Name
  0.38,                                   ! ASHRAE Taub {dimensionless}
  2.232;                                  ! ASHRAE Taud {dimensionless}

OS:ComponentData,
  {b5f9ed56-14f5-45f8-b0e9-648062fb3501}, ! Handle
  Component Data 1,                       ! Name
  {a393d128-ddbe-4518-b70c-04db681835e7}, ! UUID
  {df77a801-46da-4b65-bd83-b628329ab657}, ! Version UUID
  1366308794,                             ! Creation Timestamp
  1366308794,                             ! Version Timestamp
  {63959989-078a-49d8-8ad1-e60f88f1634f}; ! Name of Object 1

