
OS:Version,
  {d2154b62-c4fd-4035-bdaf-0828dc3482a4}, ! Handle
  0.9.3;                                  ! Version Identifier

OS:SizingPeriod:DesignDay,
  {064ebb3a-c85e-4a28-be5e-9ee39b9584ea}, ! Handle
  Gulkana Ann Htg Wind 99.6% Condns WS=>MCDB, ! Name
  -1.3,                                   ! Maximum Dry-Bulb Temperature {C}
  0,                                      ! Daily Dry-Bulb Temperature Range {deltaC}
  -1.3,                                   ! Humidity Indicating Conditions at Maximum Dry-Bulb {BasedOnField A3}
  95679,                                  ! Barometric Pressure {Pa}
  11.4,                                   ! Wind Speed {m/s}
  330,                                    ! Wind Direction {deg}
  0,                                      ! Sky Clearness
  0,                                      ! Rain Indicator
  0,                                      ! Snow Indicator
  21,                                     ! Day of Month
  1,                                      ! Month
  WinterDesignDay,                        ! Day Type
  0,                                      ! Daylight Saving Time Indicator
  Wetbulb,                                ! Humidity Indicating Type
  ,                                       ! Humidity Indicating Day Schedule Name
  DefaultMultipliers,                     ! Dry-Bulb Temperature Range Modifier Type
  ,                                       ! Dry-Bulb Temperature Range Modifier Schedule Name
  ASHRAEClearSky;                         ! Solar Model Indicator

OS:ComponentData,
  {28114cb0-6902-4f6a-973f-ed7de9ed37b6}, ! Handle
  Component Data 1,                       ! Name
  {37845eb2-0db4-4b45-ad5c-eedc3906347a}, ! UUID
  {73e31c4b-e9c2-4d4c-9bb2-51665856e394}, ! Version UUID
  1366305282,                             ! Creation Timestamp
  1366305282,                             ! Version Timestamp
  {064ebb3a-c85e-4a28-be5e-9ee39b9584ea}; ! Name of Object 1

