
OS:Version,
  {c5bc0b3d-cc06-45f4-bf5d-60e7b22bb676}, ! Handle
  0.9.3;                                  ! Version Identifier

OS:SizingPeriod:DesignDay,
  {bbd1d34f-3b9f-4882-8b90-fe099ac1ffab}, ! Handle
  Homestead Afb Ann Clg 2% Condns Enth=>MDB, ! Name
  30.4,                                   ! Maximum Dry-Bulb Temperature {C}
  6.7,                                    ! Daily Dry-Bulb Temperature Range {deltaC}
  83200,                                  ! Humidity Indicating Conditions at Maximum Dry-Bulb {BasedOnField A3}
  101265,                                 ! Barometric Pressure {Pa}
  3.5,                                    ! Wind Speed {m/s}
  120,                                    ! Wind Direction {deg}
  0,                                      ! Sky Clearness
  0,                                      ! Rain Indicator
  0,                                      ! Snow Indicator
  21,                                     ! Day of Month
  8,                                      ! Month
  SummerDesignDay,                        ! Day Type
  0,                                      ! Daylight Saving Time Indicator
  Enthalpy,                               ! Humidity Indicating Type
  ,                                       ! Humidity Indicating Day Schedule Name
  DefaultMultipliers,                     ! Dry-Bulb Temperature Range Modifier Type
  ,                                       ! Dry-Bulb Temperature Range Modifier Schedule Name
  ASHRAETau,                              ! Solar Model Indicator
  ,                                       ! Beam Solar Day Schedule Name
  ,                                       ! Diffuse Solar Day Schedule Name
  0.505,                                  ! ASHRAE Taub {dimensionless}
  1.989;                                  ! ASHRAE Taud {dimensionless}

OS:ComponentData,
  {26b03b97-a7b2-4485-b925-2f09fe489fab}, ! Handle
  Component Data 1,                       ! Name
  {89506f35-1033-4031-b4a1-1f59353a4022}, ! UUID
  {7521ca79-7155-4c9a-a4d8-ab872b1fd371}, ! Version UUID
  1366306812,                             ! Creation Timestamp
  1366306812,                             ! Version Timestamp
  {bbd1d34f-3b9f-4882-8b90-fe099ac1ffab}; ! Name of Object 1

