
OS:Version,
  {cc99a02a-b401-4743-8359-4455dd7a58e7}, ! Handle
  0.9.3;                                  ! Version Identifier

OS:SizingPeriod:DesignDay,
  {8d386df7-0797-489f-8704-f00b8a346c1f}, ! Handle
  Kingman  Amos Ann Clg .4% Condns DB=>MWB, ! Name
  38.4,                                   ! Maximum Dry-Bulb Temperature {C}
  14.3,                                   ! Daily Dry-Bulb Temperature Range {deltaC}
  18.1,                                   ! Humidity Indicating Conditions at Maximum Dry-Bulb {BasedOnField A3}
  89515,                                  ! Barometric Pressure {Pa}
  6.1,                                    ! Wind Speed {m/s}
  230,                                    ! Wind Direction {deg}
  0,                                      ! Sky Clearness
  0,                                      ! Rain Indicator
  0,                                      ! Snow Indicator
  21,                                     ! Day of Month
  7,                                      ! Month
  SummerDesignDay,                        ! Day Type
  0,                                      ! Daylight Saving Time Indicator
  Wetbulb,                                ! Humidity Indicating Type
  ,                                       ! Humidity Indicating Day Schedule Name
  DefaultMultipliers,                     ! Dry-Bulb Temperature Range Modifier Type
  ,                                       ! Dry-Bulb Temperature Range Modifier Schedule Name
  ASHRAETau,                              ! Solar Model Indicator
  ,                                       ! Beam Solar Day Schedule Name
  ,                                       ! Diffuse Solar Day Schedule Name
  0.477,                                  ! ASHRAE Taub {dimensionless}
  1.865;                                  ! ASHRAE Taud {dimensionless}

