
OS:Version,
  {d741c4ce-73f2-4189-8ccb-2bd54eff8ce6}, ! Handle
  0.9.3;                                  ! Version Identifier

OS:SizingPeriod:DesignDay,
  {83e64097-f64f-4320-b2e2-409678e1ff84}, ! Handle
  Gunnison Co   Awos Ann Clg .4% Condns DP=>MDB, ! Name
  15.5,                                   ! Maximum Dry-Bulb Temperature {C}
  17.9,                                   ! Daily Dry-Bulb Temperature Range {deltaC}
  11.3,                                   ! Humidity Indicating Conditions at Maximum Dry-Bulb {BasedOnField A3}
  76206,                                  ! Barometric Pressure {Pa}
  4.4,                                    ! Wind Speed {m/s}
  250,                                    ! Wind Direction {deg}
  0,                                      ! Sky Clearness
  0,                                      ! Rain Indicator
  0,                                      ! Snow Indicator
  21,                                     ! Day of Month
  7,                                      ! Month
  SummerDesignDay,                        ! Day Type
  0,                                      ! Daylight Saving Time Indicator
  Dewpoint,                               ! Humidity Indicating Type
  ,                                       ! Humidity Indicating Day Schedule Name
  DefaultMultipliers,                     ! Dry-Bulb Temperature Range Modifier Type
  ,                                       ! Dry-Bulb Temperature Range Modifier Schedule Name
  ASHRAETau,                              ! Solar Model Indicator
  ,                                       ! Beam Solar Day Schedule Name
  ,                                       ! Diffuse Solar Day Schedule Name
  0.384,                                  ! ASHRAE Taub {dimensionless}
  2.179;                                  ! ASHRAE Taud {dimensionless}

OS:ComponentData,
  {86296ace-a492-4c92-9510-024a2c5c139b}, ! Handle
  Component Data 1,                       ! Name
  {35ddb67a-f2af-44d2-bd3d-4fa72581a4dd}, ! UUID
  {7a3f6163-b833-4001-a5f2-543706acf49f}, ! Version UUID
  1366306709,                             ! Creation Timestamp
  1366306709,                             ! Version Timestamp
  {83e64097-f64f-4320-b2e2-409678e1ff84}; ! Name of Object 1

