
OS:Version,
  {0d4088b2-130d-43fa-93c8-08d19369cbcb}, ! Handle
  0.9.3;                                  ! Version Identifier

OS:SizingPeriod:DesignDay,
  {4622fca5-7658-4785-91f3-53285513c249}, ! Handle
  International Falls Ann Clg 1% Condns DP=>MDB, ! Name
  24.2,                                   ! Maximum Dry-Bulb Temperature {C}
  12.4,                                   ! Daily Dry-Bulb Temperature Range {deltaC}
  19.8,                                   ! Humidity Indicating Conditions at Maximum Dry-Bulb {BasedOnField A3}
  97063,                                  ! Barometric Pressure {Pa}
  4.7,                                    ! Wind Speed {m/s}
  200,                                    ! Wind Direction {deg}
  0,                                      ! Sky Clearness
  0,                                      ! Rain Indicator
  0,                                      ! Snow Indicator
  21,                                     ! Day of Month
  7,                                      ! Month
  SummerDesignDay,                        ! Day Type
  0,                                      ! Daylight Saving Time Indicator
  Dewpoint,                               ! Humidity Indicating Type
  ,                                       ! Humidity Indicating Day Schedule Name
  DefaultMultipliers,                     ! Dry-Bulb Temperature Range Modifier Type
  ,                                       ! Dry-Bulb Temperature Range Modifier Schedule Name
  ASHRAETau,                              ! Solar Model Indicator
  ,                                       ! Beam Solar Day Schedule Name
  ,                                       ! Diffuse Solar Day Schedule Name
  0.405,                                  ! ASHRAE Taub {dimensionless}
  2.2;                                    ! ASHRAE Taud {dimensionless}

OS:ComponentData,
  {e21b3812-bf67-48ba-b17a-5fd396bef4e0}, ! Handle
  Component Data 1,                       ! Name
  {83e2b76a-5f7d-4abb-ab2d-72bc1fa9bb58}, ! UUID
  {fb564834-652f-4ba9-a790-ab7a192e9e3b}, ! Version UUID
  1366308272,                             ! Creation Timestamp
  1366308272,                             ! Version Timestamp
  {4622fca5-7658-4785-91f3-53285513c249}; ! Name of Object 1

