
OS:Version,
  {aad94243-2f5e-400c-a439-f0f0998bab57}, ! Handle
  0.9.3;                                  ! Version Identifier

OS:SizingPeriod:DesignDay,
  {e6cba45e-56b9-482c-bf3a-e265d4bb0779}, ! Handle
  Andrews Afb Ann Clg .4% Condns WB=>MDB, ! Name
  31.4,                                   ! Maximum Dry-Bulb Temperature {C}
  10.3,                                   ! Daily Dry-Bulb Temperature Range {deltaC}
  25.7,                                   ! Humidity Indicating Conditions at Maximum Dry-Bulb {BasedOnField A3}
  100296,                                 ! Barometric Pressure {Pa}
  4.1,                                    ! Wind Speed {m/s}
  230,                                    ! Wind Direction {deg}
  0,                                      ! Sky Clearness
  0,                                      ! Rain Indicator
  0,                                      ! Snow Indicator
  21,                                     ! Day of Month
  7,                                      ! Month
  SummerDesignDay,                        ! Day Type
  0,                                      ! Daylight Saving Time Indicator
  Wetbulb,                                ! Humidity Indicating Type
  ,                                       ! Humidity Indicating Day Schedule Name
  DefaultMultipliers,                     ! Dry-Bulb Temperature Range Modifier Type
  ,                                       ! Dry-Bulb Temperature Range Modifier Schedule Name
  ASHRAETau,                              ! Solar Model Indicator
  ,                                       ! Beam Solar Day Schedule Name
  ,                                       ! Diffuse Solar Day Schedule Name
  0.561,                                  ! ASHRAE Taub {dimensionless}
  1.747;                                  ! ASHRAE Taud {dimensionless}

OS:ComponentData,
  {75c88477-5093-48ca-99cc-d9c626748d80}, ! Handle
  Component Data 1,                       ! Name
  {3f8a91af-b803-4419-af87-68bf44b27c39}, ! UUID
  {c4d464f4-6cd0-4939-b83b-2e76c59db40e}, ! Version UUID
  1366307834,                             ! Creation Timestamp
  1366307834,                             ! Version Timestamp
  {e6cba45e-56b9-482c-bf3a-e265d4bb0779}; ! Name of Object 1

