
OS:Version,
  {6b41762f-07f2-495b-b37f-95c84926d502}, ! Handle
  0.9.3;                                  ! Version Identifier

OS:SizingPeriod:DesignDay,
  {5831e66b-c9c7-4dcb-9ccc-8136151f86e6}, ! Handle
  Lawton Municipal Ann Clg 2% Condns DB=>MWB, ! Name
  37.2,                                   ! Maximum Dry-Bulb Temperature {C}
  13.7,                                   ! Daily Dry-Bulb Temperature Range {deltaC}
  23.2,                                   ! Humidity Indicating Conditions at Maximum Dry-Bulb {BasedOnField A3}
  97330,                                  ! Barometric Pressure {Pa}
  5.2,                                    ! Wind Speed {m/s}
  170,                                    ! Wind Direction {deg}
  0,                                      ! Sky Clearness
  0,                                      ! Rain Indicator
  0,                                      ! Snow Indicator
  21,                                     ! Day of Month
  7,                                      ! Month
  SummerDesignDay,                        ! Day Type
  0,                                      ! Daylight Saving Time Indicator
  Wetbulb,                                ! Humidity Indicating Type
  ,                                       ! Humidity Indicating Day Schedule Name
  DefaultMultipliers,                     ! Dry-Bulb Temperature Range Modifier Type
  ,                                       ! Dry-Bulb Temperature Range Modifier Schedule Name
  ASHRAETau,                              ! Solar Model Indicator
  ,                                       ! Beam Solar Day Schedule Name
  ,                                       ! Diffuse Solar Day Schedule Name
  0.436,                                  ! ASHRAE Taub {dimensionless}
  2.167;                                  ! ASHRAE Taud {dimensionless}

OS:ComponentData,
  {08994009-b5de-4898-919a-f05bb04eb8d6}, ! Handle
  Component Data 1,                       ! Name
  {f8bf64cf-e37e-4157-92bb-b59f31c0ca6d}, ! UUID
  {50b6beaf-21b3-42ce-bf80-1db53c3a9bd2}, ! Version UUID
  1366309903,                             ! Creation Timestamp
  1366309903,                             ! Version Timestamp
  {5831e66b-c9c7-4dcb-9ccc-8136151f86e6}; ! Name of Object 1

