
OS:Version,
  {4337f517-752d-480e-8782-f536c05433f6}, ! Handle
  0.9.3;                                  ! Version Identifier

OS:SizingPeriod:DesignDay,
  {a6eda523-322e-4874-954d-596b9aa09bd8}, ! Handle
  Buffalo Niagara Intl Ap Ann Clg 2% Condns DB=>MWB, ! Name
  27.6,                                   ! Maximum Dry-Bulb Temperature {C}
  9.3,                                    ! Daily Dry-Bulb Temperature Range {deltaC}
  20.5,                                   ! Humidity Indicating Conditions at Maximum Dry-Bulb {BasedOnField A3}
  98769,                                  ! Barometric Pressure {Pa}
  5.7,                                    ! Wind Speed {m/s}
  240,                                    ! Wind Direction {deg}
  0,                                      ! Sky Clearness
  0,                                      ! Rain Indicator
  0,                                      ! Snow Indicator
  21,                                     ! Day of Month
  7,                                      ! Month
  SummerDesignDay,                        ! Day Type
  0,                                      ! Daylight Saving Time Indicator
  Wetbulb,                                ! Humidity Indicating Type
  ,                                       ! Humidity Indicating Day Schedule Name
  DefaultMultipliers,                     ! Dry-Bulb Temperature Range Modifier Type
  ,                                       ! Dry-Bulb Temperature Range Modifier Schedule Name
  ASHRAETau,                              ! Solar Model Indicator
  ,                                       ! Beam Solar Day Schedule Name
  ,                                       ! Diffuse Solar Day Schedule Name
  0.462,                                  ! ASHRAE Taub {dimensionless}
  2.001;                                  ! ASHRAE Taud {dimensionless}

OS:ComponentData,
  {08454f11-2638-42ed-9ae1-ca8f14eda8b7}, ! Handle
  Component Data 1,                       ! Name
  {00854054-bc20-4662-bc7c-730c41a51eb1}, ! UUID
  {4b3076b9-b825-4f64-8acc-9acfa49ad70a}, ! Version UUID
  1366309608,                             ! Creation Timestamp
  1366309608,                             ! Version Timestamp
  {a6eda523-322e-4874-954d-596b9aa09bd8}; ! Name of Object 1

