
OS:Version,
  {3e4ed050-a898-440d-acf8-39a8a7578dbb}, ! Handle
  0.9.3;                                  ! Version Identifier

OS:SizingPeriod:DesignDay,
  {36b99553-68ac-47d0-95a0-4b92ca341f8b}, ! Handle
  Billings Ann Clg .4% Condns Enth=>MDB,  ! Name
  29.5,                                   ! Maximum Dry-Bulb Temperature {C}
  14.5,                                   ! Daily Dry-Bulb Temperature Range {deltaC}
  58800,                                  ! Humidity Indicating Conditions at Maximum Dry-Bulb {BasedOnField A3}
  88919,                                  ! Barometric Pressure {Pa}
  4.2,                                    ! Wind Speed {m/s}
  50,                                     ! Wind Direction {deg}
  0,                                      ! Sky Clearness
  0,                                      ! Rain Indicator
  0,                                      ! Snow Indicator
  21,                                     ! Day of Month
  7,                                      ! Month
  SummerDesignDay,                        ! Day Type
  0,                                      ! Daylight Saving Time Indicator
  Enthalpy,                               ! Humidity Indicating Type
  ,                                       ! Humidity Indicating Day Schedule Name
  DefaultMultipliers,                     ! Dry-Bulb Temperature Range Modifier Type
  ,                                       ! Dry-Bulb Temperature Range Modifier Schedule Name
  ASHRAETau,                              ! Solar Model Indicator
  ,                                       ! Beam Solar Day Schedule Name
  ,                                       ! Diffuse Solar Day Schedule Name
  0.405,                                  ! ASHRAE Taub {dimensionless}
  2.084;                                  ! ASHRAE Taud {dimensionless}

OS:ComponentData,
  {8636542d-34b3-4a92-a91d-3dc8f349f440}, ! Handle
  Component Data 1,                       ! Name
  {7f3a2f01-adb2-4478-b49c-ad9a0f819d17}, ! UUID
  {377df1e9-11e2-41b8-8413-e32604ced06c}, ! Version UUID
  1366308700,                             ! Creation Timestamp
  1366308700,                             ! Version Timestamp
  {36b99553-68ac-47d0-95a0-4b92ca341f8b}; ! Name of Object 1

