
OS:Version,
  {fe3a7a84-a5a4-4190-9c4f-bfda479b56db}, ! Handle
  0.9.3;                                  ! Version Identifier

OS:SizingPeriod:DesignDay,
  {8d01cfcd-0b9a-4dec-8414-4907af9af4dc}, ! Handle
  Idaho Falls Fanning Field Ann Htg Wind 99.6% Condns WS=>MCDB, ! Name
  0.3,                                    ! Maximum Dry-Bulb Temperature {C}
  0,                                      ! Daily Dry-Bulb Temperature Range {deltaC}
  0.3,                                    ! Humidity Indicating Conditions at Maximum Dry-Bulb {BasedOnField A3}
  85170,                                  ! Barometric Pressure {Pa}
  12.9,                                   ! Wind Speed {m/s}
  0,                                      ! Wind Direction {deg}
  0,                                      ! Sky Clearness
  0,                                      ! Rain Indicator
  0,                                      ! Snow Indicator
  21,                                     ! Day of Month
  1,                                      ! Month
  WinterDesignDay,                        ! Day Type
  0,                                      ! Daylight Saving Time Indicator
  Wetbulb,                                ! Humidity Indicating Type
  ,                                       ! Humidity Indicating Day Schedule Name
  DefaultMultipliers,                     ! Dry-Bulb Temperature Range Modifier Type
  ,                                       ! Dry-Bulb Temperature Range Modifier Schedule Name
  ASHRAEClearSky;                         ! Solar Model Indicator

OS:ComponentData,
  {e44c7b22-4ed2-4620-adf5-d8f8b1234f7b}, ! Handle
  Component Data 1,                       ! Name
  {e63c52ed-e1d2-4c14-ba91-2c057e990f6f}, ! UUID
  {cf74d14d-6d40-4248-bda7-36fd0adc6d53}, ! Version UUID
  1366307284,                             ! Creation Timestamp
  1366307284,                             ! Version Timestamp
  {8d01cfcd-0b9a-4dec-8414-4907af9af4dc}; ! Name of Object 1

