
OS:Version,
  {82a6037b-3d9b-40be-820c-a7ab77bdbed4}, ! Handle
  0.9.3;                                  ! Version Identifier

OS:SizingPeriod:DesignDay,
  {ca603adc-018e-468a-bb5b-e6ce209021aa}, ! Handle
  Hilo Ann Htg Wind 99% Condns WS=>MCDB,  ! Name
  23.7,                                   ! Maximum Dry-Bulb Temperature {C}
  0,                                      ! Daily Dry-Bulb Temperature Range {deltaC}
  23.7,                                   ! Humidity Indicating Conditions at Maximum Dry-Bulb {BasedOnField A3}
  101193,                                 ! Barometric Pressure {Pa}
  9.1,                                    ! Wind Speed {m/s}
  220,                                    ! Wind Direction {deg}
  0,                                      ! Sky Clearness
  0,                                      ! Rain Indicator
  0,                                      ! Snow Indicator
  21,                                     ! Day of Month
  2,                                      ! Month
  WinterDesignDay,                        ! Day Type
  0,                                      ! Daylight Saving Time Indicator
  Wetbulb,                                ! Humidity Indicating Type
  ,                                       ! Humidity Indicating Day Schedule Name
  DefaultMultipliers,                     ! Dry-Bulb Temperature Range Modifier Type
  ,                                       ! Dry-Bulb Temperature Range Modifier Schedule Name
  ASHRAEClearSky;                         ! Solar Model Indicator

OS:ComponentData,
  {f5638181-e969-405b-849e-911f12a55473}, ! Handle
  Component Data 1,                       ! Name
  {aa3eee47-a8c1-4877-85bd-f2e32f755126}, ! UUID
  {aebab970-fd9b-4c94-ae5f-eb04279be5a8}, ! Version UUID
  1366307080,                             ! Creation Timestamp
  1366307080,                             ! Version Timestamp
  {ca603adc-018e-468a-bb5b-e6ce209021aa}; ! Name of Object 1

