
OS:Version,
  {7952ad40-1cea-45df-a6b7-945124d4d499}, ! Handle
  0.9.3;                                  ! Version Identifier

OS:SizingPeriod:DesignDay,
  {cf02ff32-81e2-4f74-b36e-836a2ff5b8fa}, ! Handle
  Jackson Ann Clg 1% Condns DB=>MWB,      ! Name
  34.2,                                   ! Maximum Dry-Bulb Temperature {C}
  10.7,                                   ! Daily Dry-Bulb Temperature Range {deltaC}
  24.6,                                   ! Humidity Indicating Conditions at Maximum Dry-Bulb {BasedOnField A3}
  100118,                                 ! Barometric Pressure {Pa}
  3.2,                                    ! Wind Speed {m/s}
  350,                                    ! Wind Direction {deg}
  0,                                      ! Sky Clearness
  0,                                      ! Rain Indicator
  0,                                      ! Snow Indicator
  21,                                     ! Day of Month
  7,                                      ! Month
  SummerDesignDay,                        ! Day Type
  0,                                      ! Daylight Saving Time Indicator
  Wetbulb,                                ! Humidity Indicating Type
  ,                                       ! Humidity Indicating Day Schedule Name
  DefaultMultipliers,                     ! Dry-Bulb Temperature Range Modifier Type
  ,                                       ! Dry-Bulb Temperature Range Modifier Schedule Name
  ASHRAETau,                              ! Solar Model Indicator
  ,                                       ! Beam Solar Day Schedule Name
  ,                                       ! Diffuse Solar Day Schedule Name
  0.534,                                  ! ASHRAE Taub {dimensionless}
  1.869;                                  ! ASHRAE Taud {dimensionless}

OS:ComponentData,
  {dc3180cf-30b6-460b-b9f2-01c613ad4d00}, ! Handle
  Component Data 1,                       ! Name
  {3a996300-9e2c-4fa7-baf2-924a5b577313}, ! UUID
  {ba0ee6d8-4937-48c7-aa56-7e7546d30d6b}, ! Version UUID
  1366308645,                             ! Creation Timestamp
  1366308645,                             ! Version Timestamp
  {cf02ff32-81e2-4f74-b36e-836a2ff5b8fa}; ! Name of Object 1

