
OS:Version,
  {62f32937-ba58-4ad7-a245-c263f1fd7377}, ! Handle
  0.9.3;                                  ! Version Identifier

OS:SizingPeriod:DesignDay,
  {b5abe0bc-99dd-4404-acab-2b8d5538a88b}, ! Handle
  Cincinnati Northern Ky Ap Ann Clg 1% Condns DB=>MWB, ! Name
  31.6,                                   ! Maximum Dry-Bulb Temperature {C}
  10.3,                                   ! Daily Dry-Bulb Temperature Range {deltaC}
  23.2,                                   ! Humidity Indicating Conditions at Maximum Dry-Bulb {BasedOnField A3}
  98182,                                  ! Barometric Pressure {Pa}
  4.3,                                    ! Wind Speed {m/s}
  230,                                    ! Wind Direction {deg}
  0,                                      ! Sky Clearness
  0,                                      ! Rain Indicator
  0,                                      ! Snow Indicator
  21,                                     ! Day of Month
  7,                                      ! Month
  SummerDesignDay,                        ! Day Type
  0,                                      ! Daylight Saving Time Indicator
  Wetbulb,                                ! Humidity Indicating Type
  ,                                       ! Humidity Indicating Day Schedule Name
  DefaultMultipliers,                     ! Dry-Bulb Temperature Range Modifier Type
  ,                                       ! Dry-Bulb Temperature Range Modifier Schedule Name
  ASHRAETau,                              ! Solar Model Indicator
  ,                                       ! Beam Solar Day Schedule Name
  ,                                       ! Diffuse Solar Day Schedule Name
  0.493,                                  ! ASHRAE Taub {dimensionless}
  1.911;                                  ! ASHRAE Taud {dimensionless}

OS:ComponentData,
  {dc93dc4b-28dc-4d80-ab7d-673b19dc777f}, ! Handle
  Component Data 1,                       ! Name
  {e8ba3dab-9eb6-4522-bd9f-02c8dcadd9c8}, ! UUID
  {830a97b7-d446-49e8-8900-fcdb5e6558cb}, ! Version UUID
  1366307621,                             ! Creation Timestamp
  1366307621,                             ! Version Timestamp
  {b5abe0bc-99dd-4404-acab-2b8d5538a88b}; ! Name of Object 1

