
OS:Version,
  {b396fac6-7130-4cfe-ac3e-9c63cf54c0f3}, ! Handle
  0.9.3;                                  ! Version Identifier

OS:SizingPeriod:DesignDay,
  {24088ed5-8d6c-4efb-8db1-bc5cd00e9ce4}, ! Handle
  Cedar Rapids Municipal Ap Ann Clg 1% Condns DB=>MWB, ! Name
  31.4,                                   ! Maximum Dry-Bulb Temperature {C}
  10.9,                                   ! Daily Dry-Bulb Temperature Range {deltaC}
  23.7,                                   ! Humidity Indicating Conditions at Maximum Dry-Bulb {BasedOnField A3}
  98287,                                  ! Barometric Pressure {Pa}
  4.8,                                    ! Wind Speed {m/s}
  180,                                    ! Wind Direction {deg}
  0,                                      ! Sky Clearness
  0,                                      ! Rain Indicator
  0,                                      ! Snow Indicator
  21,                                     ! Day of Month
  7,                                      ! Month
  SummerDesignDay,                        ! Day Type
  0,                                      ! Daylight Saving Time Indicator
  Wetbulb,                                ! Humidity Indicating Type
  ,                                       ! Humidity Indicating Day Schedule Name
  DefaultMultipliers,                     ! Dry-Bulb Temperature Range Modifier Type
  ,                                       ! Dry-Bulb Temperature Range Modifier Schedule Name
  ASHRAETau,                              ! Solar Model Indicator
  ,                                       ! Beam Solar Day Schedule Name
  ,                                       ! Diffuse Solar Day Schedule Name
  0.439,                                  ! ASHRAE Taub {dimensionless}
  2.102;                                  ! ASHRAE Taud {dimensionless}

OS:ComponentData,
  {bff5f517-f6a8-4bda-830a-1f62a1f601d3}, ! Handle
  Component Data 1,                       ! Name
  {55e0e420-e923-4c68-8096-f93b3e91d0a7}, ! UUID
  {de69b100-2d44-45b3-9e38-09913f65a6a3}, ! Version UUID
  1366307149,                             ! Creation Timestamp
  1366307149,                             ! Version Timestamp
  {24088ed5-8d6c-4efb-8db1-bc5cd00e9ce4}; ! Name of Object 1

