
OS:Version,
  {0f7fbfe1-9325-44c2-8dd2-4e9676a5e217}, ! Handle
  0.9.3;                                  ! Version Identifier

OS:SizingPeriod:DesignDay,
  {f348bba5-b67f-464e-9119-1ec8719a3fd3}, ! Handle
  Charleston Ann Clg .4% Condns DP=>MDB,  ! Name
  27.1,                                   ! Maximum Dry-Bulb Temperature {C}
  10.7,                                   ! Daily Dry-Bulb Temperature Range {deltaC}
  23.3,                                   ! Humidity Indicating Conditions at Maximum Dry-Bulb {BasedOnField A3}
  97784,                                  ! Barometric Pressure {Pa}
  2.9,                                    ! Wind Speed {m/s}
  240,                                    ! Wind Direction {deg}
  0,                                      ! Sky Clearness
  0,                                      ! Rain Indicator
  0,                                      ! Snow Indicator
  21,                                     ! Day of Month
  7,                                      ! Month
  SummerDesignDay,                        ! Day Type
  0,                                      ! Daylight Saving Time Indicator
  Dewpoint,                               ! Humidity Indicating Type
  ,                                       ! Humidity Indicating Day Schedule Name
  DefaultMultipliers,                     ! Dry-Bulb Temperature Range Modifier Type
  ,                                       ! Dry-Bulb Temperature Range Modifier Schedule Name
  ASHRAETau,                              ! Solar Model Indicator
  ,                                       ! Beam Solar Day Schedule Name
  ,                                       ! Diffuse Solar Day Schedule Name
  0.513,                                  ! ASHRAE Taub {dimensionless}
  1.859;                                  ! ASHRAE Taud {dimensionless}

OS:ComponentData,
  {78e18dee-464b-494a-ac03-b19030bfa47c}, ! Handle
  Component Data 1,                       ! Name
  {99d17eef-76c2-41f0-bdfa-8ae5ca5da1e8}, ! UUID
  {e0e12e77-ebf7-4538-9055-e131ccf53f29}, ! Version UUID
  1366311620,                             ! Creation Timestamp
  1366311620,                             ! Version Timestamp
  {f348bba5-b67f-464e-9119-1ec8719a3fd3}; ! Name of Object 1

