
OS:Version,
  {7f5a6b68-b923-4a2c-9ae4-f63342a9ee02}, ! Handle
  0.9.3;                                  ! Version Identifier

OS:SizingPeriod:DesignDay,
  {7222768c-cf9e-4b9c-b90b-e7ddc7fc01a8}, ! Handle
  Lake Hood Seaplane Ann Htg 99.6% Condns DB, ! Name
  -22.6,                                  ! Maximum Dry-Bulb Temperature {C}
  0,                                      ! Daily Dry-Bulb Temperature Range {deltaC}
  -22.6,                                  ! Humidity Indicating Conditions at Maximum Dry-Bulb {BasedOnField A3}
  101061,                                 ! Barometric Pressure {Pa}
  1.1,                                    ! Wind Speed {m/s}
  350,                                    ! Wind Direction {deg}
  0,                                      ! Sky Clearness
  0,                                      ! Rain Indicator
  0,                                      ! Snow Indicator
  21,                                     ! Day of Month
  1,                                      ! Month
  WinterDesignDay,                        ! Day Type
  0,                                      ! Daylight Saving Time Indicator
  Wetbulb,                                ! Humidity Indicating Type
  ,                                       ! Humidity Indicating Day Schedule Name
  DefaultMultipliers,                     ! Dry-Bulb Temperature Range Modifier Type
  ,                                       ! Dry-Bulb Temperature Range Modifier Schedule Name
  ASHRAEClearSky;                         ! Solar Model Indicator

OS:ComponentData,
  {39ac991b-a8de-4c30-89a8-80f71824f995}, ! Handle
  Component Data 1,                       ! Name
  {fa43848b-94f2-4448-b7a9-e1eca4776733}, ! UUID
  {83740f66-be83-469f-a83b-21ed59bf838d}, ! Version UUID
  1366304695,                             ! Creation Timestamp
  1366304695,                             ! Version Timestamp
  {7222768c-cf9e-4b9c-b90b-e7ddc7fc01a8}; ! Name of Object 1

