
OS:Version,
  {8442654f-0de7-48f9-8864-4d62fe031293}, ! Handle
  0.9.3;                                  ! Version Identifier

OS:SizingPeriod:DesignDay,
  {240652f5-e9b4-45b4-a142-67476144d6cb}, ! Handle
  Chicago Ohare Intl Ap Ann Clg .4% Condns WB=>MDB, ! Name
  31.2,                                   ! Maximum Dry-Bulb Temperature {C}
  10.5,                                   ! Daily Dry-Bulb Temperature Range {deltaC}
  25.5,                                   ! Humidity Indicating Conditions at Maximum Dry-Bulb {BasedOnField A3}
  98934,                                  ! Barometric Pressure {Pa}
  5.2,                                    ! Wind Speed {m/s}
  230,                                    ! Wind Direction {deg}
  0,                                      ! Sky Clearness
  0,                                      ! Rain Indicator
  0,                                      ! Snow Indicator
  21,                                     ! Day of Month
  7,                                      ! Month
  SummerDesignDay,                        ! Day Type
  0,                                      ! Daylight Saving Time Indicator
  Wetbulb,                                ! Humidity Indicating Type
  ,                                       ! Humidity Indicating Day Schedule Name
  DefaultMultipliers,                     ! Dry-Bulb Temperature Range Modifier Type
  ,                                       ! Dry-Bulb Temperature Range Modifier Schedule Name
  ASHRAETau,                              ! Solar Model Indicator
  ,                                       ! Beam Solar Day Schedule Name
  ,                                       ! Diffuse Solar Day Schedule Name
  0.455,                                  ! ASHRAE Taub {dimensionless}
  2.05;                                   ! ASHRAE Taud {dimensionless}

OS:ComponentData,
  {636fab1e-f275-483f-9a06-ac511642ed6c}, ! Handle
  Component Data 1,                       ! Name
  {19aaff55-4761-4937-bc3c-fc6312bd1ad3}, ! UUID
  {b3676e29-dc3b-4166-ab95-8ee7c0131c00}, ! Version UUID
  1366307351,                             ! Creation Timestamp
  1366307351,                             ! Version Timestamp
  {240652f5-e9b4-45b4-a142-67476144d6cb}; ! Name of Object 1

