
OS:Version,
  {307a8fa8-3d47-4892-bc3c-fb0df9c228ae}, ! Handle
  0.9.3;                                  ! Version Identifier

OS:SizingPeriod:DesignDay,
  {2f3b871b-b8a7-40fd-9fb8-bc03f98873e1}, ! Handle
  Camp Pendleton Mcas Ann Clg .4% Condns Enth=>MDB, ! Name
  28.9,                                   ! Maximum Dry-Bulb Temperature {C}
  11.1,                                   ! Daily Dry-Bulb Temperature Range {deltaC}
  64700,                                  ! Humidity Indicating Conditions at Maximum Dry-Bulb {BasedOnField A3}
  101049,                                 ! Barometric Pressure {Pa}
  4.2,                                    ! Wind Speed {m/s}
  210,                                    ! Wind Direction {deg}
  0,                                      ! Sky Clearness
  0,                                      ! Rain Indicator
  0,                                      ! Snow Indicator
  21,                                     ! Day of Month
  8,                                      ! Month
  SummerDesignDay,                        ! Day Type
  0,                                      ! Daylight Saving Time Indicator
  Enthalpy,                               ! Humidity Indicating Type
  ,                                       ! Humidity Indicating Day Schedule Name
  DefaultMultipliers,                     ! Dry-Bulb Temperature Range Modifier Type
  ,                                       ! Dry-Bulb Temperature Range Modifier Schedule Name
  ASHRAETau,                              ! Solar Model Indicator
  ,                                       ! Beam Solar Day Schedule Name
  ,                                       ! Diffuse Solar Day Schedule Name
  0.432,                                  ! ASHRAE Taub {dimensionless}
  2.16;                                   ! ASHRAE Taud {dimensionless}

OS:ComponentData,
  {13da3513-19f2-4d26-8d87-cc95ce3d2874}, ! Handle
  Component Data 1,                       ! Name
  {e0d18d5c-4d11-4360-8b34-e39ba4c8807a}, ! UUID
  {3240cb1c-3bf7-4584-9f80-6623c063c462}, ! Version UUID
  1366306399,                             ! Creation Timestamp
  1366306399,                             ! Version Timestamp
  {2f3b871b-b8a7-40fd-9fb8-bc03f98873e1}; ! Name of Object 1

