
OS:Version,
  {a42e6e1f-6bef-4acd-9187-ee6ffd5ab7c3}, ! Handle
  0.9.3;                                  ! Version Identifier

OS:SizingPeriod:DesignDay,
  {2e2d909d-e28f-4d49-aee6-e0f72a682a4e}, ! Handle
  Augusta Ann Clg .4% Condns Enth=>MDB,   ! Name
  32.8,                                   ! Maximum Dry-Bulb Temperature {C}
  11.7,                                   ! Daily Dry-Bulb Temperature Range {deltaC}
  81700,                                  ! Humidity Indicating Conditions at Maximum Dry-Bulb {BasedOnField A3}
  100786,                                 ! Barometric Pressure {Pa}
  3.8,                                    ! Wind Speed {m/s}
  240,                                    ! Wind Direction {deg}
  0,                                      ! Sky Clearness
  0,                                      ! Rain Indicator
  0,                                      ! Snow Indicator
  21,                                     ! Day of Month
  7,                                      ! Month
  SummerDesignDay,                        ! Day Type
  0,                                      ! Daylight Saving Time Indicator
  Enthalpy,                               ! Humidity Indicating Type
  ,                                       ! Humidity Indicating Day Schedule Name
  DefaultMultipliers,                     ! Dry-Bulb Temperature Range Modifier Type
  ,                                       ! Dry-Bulb Temperature Range Modifier Schedule Name
  ASHRAETau,                              ! Solar Model Indicator
  ,                                       ! Beam Solar Day Schedule Name
  ,                                       ! Diffuse Solar Day Schedule Name
  0.559,                                  ! ASHRAE Taub {dimensionless}
  1.788;                                  ! ASHRAE Taud {dimensionless}

OS:ComponentData,
  {0161f234-f3a2-48d0-850e-c075d4a05437}, ! Handle
  Component Data 1,                       ! Name
  {2b465eba-d077-4334-8876-fb0f821b8814}, ! UUID
  {a88558b8-59ee-43b9-8968-7c3008c17ffc}, ! Version UUID
  1366306986,                             ! Creation Timestamp
  1366306986,                             ! Version Timestamp
  {2e2d909d-e28f-4d49-aee6-e0f72a682a4e}; ! Name of Object 1

