
OS:Version,
  {6cd2126a-cd4f-464e-bd6d-ae72aed94e8b}, ! Handle
  0.9.3;                                  ! Version Identifier

OS:SizingPeriod:DesignDay,
  {d7bd58e4-0c3c-413f-868b-b172151c105b}, ! Handle
  Kahului Airport Ann Htg Wind 99% Condns WS=>MCDB, ! Name
  24.6,                                   ! Maximum Dry-Bulb Temperature {C}
  0,                                      ! Daily Dry-Bulb Temperature Range {deltaC}
  24.6,                                   ! Humidity Indicating Conditions at Maximum Dry-Bulb {BasedOnField A3}
  101133,                                 ! Barometric Pressure {Pa}
  11.5,                                   ! Wind Speed {m/s}
  150,                                    ! Wind Direction {deg}
  0,                                      ! Sky Clearness
  0,                                      ! Rain Indicator
  0,                                      ! Snow Indicator
  21,                                     ! Day of Month
  2,                                      ! Month
  WinterDesignDay,                        ! Day Type
  0,                                      ! Daylight Saving Time Indicator
  Wetbulb,                                ! Humidity Indicating Type
  ,                                       ! Humidity Indicating Day Schedule Name
  DefaultMultipliers,                     ! Dry-Bulb Temperature Range Modifier Type
  ,                                       ! Dry-Bulb Temperature Range Modifier Schedule Name
  ASHRAEClearSky;                         ! Solar Model Indicator

OS:ComponentData,
  {9d8931f4-aa06-40e2-b56d-53a7756abbef}, ! Handle
  Component Data 1,                       ! Name
  {c4dd5af1-a76f-4726-a84f-01331fa47866}, ! UUID
  {014ee881-586c-4cd3-9e7e-b7698dd05669}, ! Version UUID
  1366307100,                             ! Creation Timestamp
  1366307100,                             ! Version Timestamp
  {d7bd58e4-0c3c-413f-868b-b172151c105b}; ! Name of Object 1

