
OS:Version,
  {51fd0201-f838-4036-a7d4-4dcc62764a1a}, ! Handle
  0.9.3;                                  ! Version Identifier

OS:SizingPeriod:DesignDay,
  {898c7c0b-7cfe-473e-b3c4-3fc147fd96e0}, ! Handle
  Jackson Reynolds Field Ann Clg 2% Condns WB=>MDB, ! Name
  27,                                     ! Maximum Dry-Bulb Temperature {C}
  11.3,                                   ! Daily Dry-Bulb Temperature Range {deltaC}
  22.8,                                   ! Humidity Indicating Conditions at Maximum Dry-Bulb {BasedOnField A3}
  97726,                                  ! Barometric Pressure {Pa}
  4.6,                                    ! Wind Speed {m/s}
  220,                                    ! Wind Direction {deg}
  0,                                      ! Sky Clearness
  0,                                      ! Rain Indicator
  0,                                      ! Snow Indicator
  21,                                     ! Day of Month
  7,                                      ! Month
  SummerDesignDay,                        ! Day Type
  0,                                      ! Daylight Saving Time Indicator
  Wetbulb,                                ! Humidity Indicating Type
  ,                                       ! Humidity Indicating Day Schedule Name
  DefaultMultipliers,                     ! Dry-Bulb Temperature Range Modifier Type
  ,                                       ! Dry-Bulb Temperature Range Modifier Schedule Name
  ASHRAETau,                              ! Solar Model Indicator
  ,                                       ! Beam Solar Day Schedule Name
  ,                                       ! Diffuse Solar Day Schedule Name
  0.429,                                  ! ASHRAE Taub {dimensionless}
  2.131;                                  ! ASHRAE Taud {dimensionless}

OS:ComponentData,
  {7db6a13b-351f-42a7-a05b-a071b4ab2c72}, ! Handle
  Component Data 1,                       ! Name
  {1d5db170-91f4-4129-9287-b85f65c4cd86}, ! UUID
  {2baee377-6e36-4f15-bfd4-31b63914c2b3}, ! Version UUID
  1366308045,                             ! Creation Timestamp
  1366308045,                             ! Version Timestamp
  {898c7c0b-7cfe-473e-b3c4-3fc147fd96e0}; ! Name of Object 1

