
OS:Version,
  {f6a0f7cc-a9ed-450b-a56e-5fa503a14e2e}, ! Handle
  0.9.3;                                  ! Version Identifier

OS:SizingPeriod:DesignDay,
  {1e0ad0bc-9654-4716-9962-8079fb5f922f}, ! Handle
  HILO Ann Clg .4% Condns DP=>MDB,        ! Name
  26.2,                                   ! Maximum Dry-Bulb Temperature {C}
  7,                                      ! Daily Dry-Bulb Temperature Range {deltaC}
  23.9,                                   ! Humidity Indicating Conditions at Maximum Dry-Bulb {BasedOnField A3}
  101193,                                 ! Barometric Pressure {Pa}
  4.8,                                    ! Wind Speed {m/s}
  90,                                     ! Wind Direction {deg}
  0,                                      ! Sky Clearness
  0,                                      ! Rain Indicator
  0,                                      ! Snow Indicator
  21,                                     ! Day of Month
  8,                                      ! Month
  SummerDesignDay,                        ! Day Type
  0,                                      ! Daylight Saving Time Indicator
  Dewpoint,                               ! Humidity Indicating Type
  ,                                       ! Humidity Indicating Day Schedule Name
  DefaultMultipliers,                     ! Dry-Bulb Temperature Range Modifier Type
  ,                                       ! Dry-Bulb Temperature Range Modifier Schedule Name
  ASHRAETau,                              ! Solar Model Indicator
  ,                                       ! Beam Solar Day Schedule Name
  ,                                       ! Diffuse Solar Day Schedule Name
  0.411,                                  ! ASHRAE Taub {dimensionless}
  2.427;                                  ! ASHRAE Taud {dimensionless}

OS:ComponentData,
  {6c9b6b70-be88-46a9-9d75-761668f9e0eb}, ! Handle
  Component Data 1,                       ! Name
  {a1a40501-7345-4050-b9d8-b0e179751502}, ! UUID
  {bc2a3a53-d43d-464f-a799-d298edcda268}, ! Version UUID
  1366307078,                             ! Creation Timestamp
  1366307078,                             ! Version Timestamp
  {1e0ad0bc-9654-4716-9962-8079fb5f922f}; ! Name of Object 1

