
OS:Version,
  {5f68e593-f556-4ef3-94de-ca126b686061}, ! Handle
  0.9.3;                                  ! Version Identifier

OS:SizingPeriod:DesignDay,
  {7e3f0f04-17da-4220-b8a7-2847579cddd2}, ! Handle
  EVANSVILLE Ann Clg 1% Condns DB=>MWB,   ! Name
  33.1,                                   ! Maximum Dry-Bulb Temperature {C}
  10.6,                                   ! Daily Dry-Bulb Temperature Range {deltaC}
  24.3,                                   ! Humidity Indicating Conditions at Maximum Dry-Bulb {BasedOnField A3}
  99915,                                  ! Barometric Pressure {Pa}
  3.7,                                    ! Wind Speed {m/s}
  240,                                    ! Wind Direction {deg}
  0,                                      ! Sky Clearness
  0,                                      ! Rain Indicator
  0,                                      ! Snow Indicator
  21,                                     ! Day of Month
  7,                                      ! Month
  SummerDesignDay,                        ! Day Type
  0,                                      ! Daylight Saving Time Indicator
  Wetbulb,                                ! Humidity Indicating Type
  ,                                       ! Humidity Indicating Day Schedule Name
  DefaultMultipliers,                     ! Dry-Bulb Temperature Range Modifier Type
  ,                                       ! Dry-Bulb Temperature Range Modifier Schedule Name
  ASHRAETau,                              ! Solar Model Indicator
  ,                                       ! Beam Solar Day Schedule Name
  ,                                       ! Diffuse Solar Day Schedule Name
  0.508,                                  ! ASHRAE Taub {dimensionless}
  1.881;                                  ! ASHRAE Taud {dimensionless}

OS:ComponentData,
  {0d5c5022-c0aa-4a02-b2c9-34a4c9ba8751}, ! Handle
  Component Data 1,                       ! Name
  {f12d4483-e77a-44ed-8008-c4284b02556e}, ! UUID
  {02ea98f1-4a56-4437-8fac-101dfa86f6f7}, ! Version UUID
  1366307424,                             ! Creation Timestamp
  1366307424,                             ! Version Timestamp
  {7e3f0f04-17da-4220-b8a7-2847579cddd2}; ! Name of Object 1

