
OS:Version,
  {ff341fe8-cdbd-4701-aa68-2c7b9882f3ab}, ! Handle
  0.9.3;                                  ! Version Identifier

OS:SizingPeriod:DesignDay,
  {f38d39b3-4187-488f-a798-7f65838919e1}, ! Handle
  Alpena Ann Htg Wind 99% Condns WS=>MCDB, ! Name
  -6.4,                                   ! Maximum Dry-Bulb Temperature {C}
  0,                                      ! Daily Dry-Bulb Temperature Range {deltaC}
  -6.4,                                   ! Humidity Indicating Conditions at Maximum Dry-Bulb {BasedOnField A3}
  98816,                                  ! Barometric Pressure {Pa}
  9.2,                                    ! Wind Speed {m/s}
  260,                                    ! Wind Direction {deg}
  0,                                      ! Sky Clearness
  0,                                      ! Rain Indicator
  0,                                      ! Snow Indicator
  21,                                     ! Day of Month
  1,                                      ! Month
  WinterDesignDay,                        ! Day Type
  0,                                      ! Daylight Saving Time Indicator
  Wetbulb,                                ! Humidity Indicating Type
  ,                                       ! Humidity Indicating Day Schedule Name
  DefaultMultipliers,                     ! Dry-Bulb Temperature Range Modifier Type
  ,                                       ! Dry-Bulb Temperature Range Modifier Schedule Name
  ASHRAEClearSky;                         ! Solar Model Indicator

OS:ComponentData,
  {d9a36e05-e494-4e4f-8178-e573c2bd6074}, ! Handle
  Component Data 1,                       ! Name
  {fb17285d-f951-48f5-a1ec-60137db488ab}, ! UUID
  {7612238b-7550-4410-8344-e878d2933e6e}, ! Version UUID
  1366307941,                             ! Creation Timestamp
  1366307941,                             ! Version Timestamp
  {f38d39b3-4187-488f-a798-7f65838919e1}; ! Name of Object 1

