
OS:Version,
  {0194dfea-f2ed-4228-b472-d591a6d99630}, ! Handle
  0.9.3;                                  ! Version Identifier

OS:SizingPeriod:DesignDay,
  {64ba3261-8560-4e5f-b0e3-af707ba798e6}, ! Handle
  Birmingham Ann Htg 99% Condns DB,       ! Name
  -4.5,                                   ! Maximum Dry-Bulb Temperature {C}
  0,                                      ! Daily Dry-Bulb Temperature Range {deltaC}
  -4.5,                                   ! Humidity Indicating Conditions at Maximum Dry-Bulb {BasedOnField A3}
  99040,                                  ! Barometric Pressure {Pa}
  3.1,                                    ! Wind Speed {m/s}
  350,                                    ! Wind Direction {deg}
  0,                                      ! Sky Clearness
  0,                                      ! Rain Indicator
  0,                                      ! Snow Indicator
  21,                                     ! Day of Month
  1,                                      ! Month
  WinterDesignDay,                        ! Day Type
  0,                                      ! Daylight Saving Time Indicator
  Wetbulb,                                ! Humidity Indicating Type
  ,                                       ! Humidity Indicating Day Schedule Name
  DefaultMultipliers,                     ! Dry-Bulb Temperature Range Modifier Type
  ,                                       ! Dry-Bulb Temperature Range Modifier Schedule Name
  ASHRAEClearSky;                         ! Solar Model Indicator

OS:ComponentData,
  {309c6084-c9bf-43cc-af8a-d06d78d8226a}, ! Handle
  Component Data 1,                       ! Name
  {3c725929-b32f-4049-a039-d5b5b27ac911}, ! UUID
  {e6bc155b-a6bb-47ed-bcae-f92994e6f085}, ! Version UUID
  1366305642,                             ! Creation Timestamp
  1366305642,                             ! Version Timestamp
  {64ba3261-8560-4e5f-b0e3-af707ba798e6}; ! Name of Object 1

