
OS:Version,
  {5c42743f-642c-4746-8fe6-6dd32995ad2f}, ! Handle
  0.9.3;                                  ! Version Identifier

OS:SizingPeriod:DesignDay,
  {cbd9ace6-5545-4e07-8f75-24b0a14d9d31}, ! Handle
  Corpus Christi Intl Arpt  Ut Ann Clg .4% Condns DP=>MDB, ! Name
  28.6,                                   ! Maximum Dry-Bulb Temperature {C}
  10.1,                                   ! Daily Dry-Bulb Temperature Range {deltaC}
  26.1,                                   ! Humidity Indicating Conditions at Maximum Dry-Bulb {BasedOnField A3}
  101253,                                 ! Barometric Pressure {Pa}
  6.6,                                    ! Wind Speed {m/s}
  140,                                    ! Wind Direction {deg}
  0,                                      ! Sky Clearness
  0,                                      ! Rain Indicator
  0,                                      ! Snow Indicator
  21,                                     ! Day of Month
  8,                                      ! Month
  SummerDesignDay,                        ! Day Type
  0,                                      ! Daylight Saving Time Indicator
  Dewpoint,                               ! Humidity Indicating Type
  ,                                       ! Humidity Indicating Day Schedule Name
  DefaultMultipliers,                     ! Dry-Bulb Temperature Range Modifier Type
  ,                                       ! Dry-Bulb Temperature Range Modifier Schedule Name
  ASHRAETau,                              ! Solar Model Indicator
  ,                                       ! Beam Solar Day Schedule Name
  ,                                       ! Diffuse Solar Day Schedule Name
  0.463,                                  ! ASHRAE Taub {dimensionless}
  2.116;                                  ! ASHRAE Taud {dimensionless}

OS:ComponentData,
  {7d15bbdd-d06b-4f2c-97bc-420e78accfa1}, ! Handle
  Component Data 1,                       ! Name
  {65283466-e075-4bcd-9a77-ee9e18a678b2}, ! UUID
  {3be1c64a-16b1-4cb9-b7cb-af797a883ef4}, ! Version UUID
  1366310630,                             ! Creation Timestamp
  1366310630,                             ! Version Timestamp
  {cbd9ace6-5545-4e07-8f75-24b0a14d9d31}; ! Name of Object 1

