
OS:Version,
  {399edffb-0a15-4fc6-b035-b23e5a10e0e7}, ! Handle
  0.9.3;                                  ! Version Identifier

OS:SizingPeriod:DesignDay,
  {e9e8c5f6-ab43-4406-b7e6-4a9bbf598020}, ! Handle
  Eugene Mahlon Sweet Arpt  Uo Ann Clg .4% Condns WB=>MDB, ! Name
  30.6,                                   ! Maximum Dry-Bulb Temperature {C}
  15.8,                                   ! Daily Dry-Bulb Temperature Range {deltaC}
  20.4,                                   ! Humidity Indicating Conditions at Maximum Dry-Bulb {BasedOnField A3}
  100022,                                 ! Barometric Pressure {Pa}
  5.1,                                    ! Wind Speed {m/s}
  0,                                      ! Wind Direction {deg}
  0,                                      ! Sky Clearness
  0,                                      ! Rain Indicator
  0,                                      ! Snow Indicator
  21,                                     ! Day of Month
  7,                                      ! Month
  SummerDesignDay,                        ! Day Type
  0,                                      ! Daylight Saving Time Indicator
  Wetbulb,                                ! Humidity Indicating Type
  ,                                       ! Humidity Indicating Day Schedule Name
  DefaultMultipliers,                     ! Dry-Bulb Temperature Range Modifier Type
  ,                                       ! Dry-Bulb Temperature Range Modifier Schedule Name
  ASHRAETau,                              ! Solar Model Indicator
  ,                                       ! Beam Solar Day Schedule Name
  ,                                       ! Diffuse Solar Day Schedule Name
  0.357,                                  ! ASHRAE Taub {dimensionless}
  2.559;                                  ! ASHRAE Taud {dimensionless}

OS:ComponentData,
  {0cbcd115-e5bc-4d8e-9abb-3b7bf59e7799}, ! Handle
  Component Data 1,                       ! Name
  {623bfde7-ea74-424e-8081-a5b720c6753b}, ! UUID
  {41176996-56f8-4764-8486-15d5e4f690bb}, ! Version UUID
  1366310007,                             ! Creation Timestamp
  1366310007,                             ! Version Timestamp
  {e9e8c5f6-ab43-4406-b7e6-4a9bbf598020}; ! Name of Object 1

