
OS:Version,
  {04db2f54-c4ef-47ad-8808-9d443b89b6ab}, ! Handle
  0.9.3;                                  ! Version Identifier

OS:SizingPeriod:DesignDay,
  {31299205-f432-4d9e-9baa-5b555eeed397}, ! Handle
  Birmingham Municipal Ap Ann Htg 99.6% Condns DB, ! Name
  -6.9,                                   ! Maximum Dry-Bulb Temperature {C}
  0,                                      ! Daily Dry-Bulb Temperature Range {deltaC}
  -6.9,                                   ! Humidity Indicating Conditions at Maximum Dry-Bulb {BasedOnField A3}
  99075,                                  ! Barometric Pressure {Pa}
  3.1,                                    ! Wind Speed {m/s}
  350,                                    ! Wind Direction {deg}
  0,                                      ! Sky Clearness
  0,                                      ! Rain Indicator
  0,                                      ! Snow Indicator
  21,                                     ! Day of Month
  1,                                      ! Month
  WinterDesignDay,                        ! Day Type
  0,                                      ! Daylight Saving Time Indicator
  Wetbulb,                                ! Humidity Indicating Type
  ,                                       ! Humidity Indicating Day Schedule Name
  DefaultMultipliers,                     ! Dry-Bulb Temperature Range Modifier Type
  ,                                       ! Dry-Bulb Temperature Range Modifier Schedule Name
  ASHRAEClearSky;                         ! Solar Model Indicator

OS:ComponentData,
  {5b6c7ae5-be9a-4968-81e1-6e558c2d7b3a}, ! Handle
  Component Data 1,                       ! Name
  {ab2d5ecf-1276-4bf7-a853-43e70037ce15}, ! UUID
  {dd39f735-ae13-44da-b978-f2d61610cca8}, ! Version UUID
  1366305645,                             ! Creation Timestamp
  1366305645,                             ! Version Timestamp
  {31299205-f432-4d9e-9baa-5b555eeed397}; ! Name of Object 1

