
OS:Version,
  {09a6e411-ac1b-4411-90b6-7883d2d697dc}, ! Handle
  0.9.3;                                  ! Version Identifier

OS:SizingPeriod:DesignDay,
  {020fa262-54b5-4e5d-804d-4e636fa32b27}, ! Handle
  Cahokia St  Louis Ann Htg Wind 99% Condns WS=>MCDB, ! Name
  1.5,                                    ! Maximum Dry-Bulb Temperature {C}
  0,                                      ! Daily Dry-Bulb Temperature Range {deltaC}
  1.5,                                    ! Humidity Indicating Conditions at Maximum Dry-Bulb {BasedOnField A3}
  99820,                                  ! Barometric Pressure {Pa}
  9.3,                                    ! Wind Speed {m/s}
  290,                                    ! Wind Direction {deg}
  0,                                      ! Sky Clearness
  0,                                      ! Rain Indicator
  0,                                      ! Snow Indicator
  21,                                     ! Day of Month
  1,                                      ! Month
  WinterDesignDay,                        ! Day Type
  0,                                      ! Daylight Saving Time Indicator
  Wetbulb,                                ! Humidity Indicating Type
  ,                                       ! Humidity Indicating Day Schedule Name
  DefaultMultipliers,                     ! Dry-Bulb Temperature Range Modifier Type
  ,                                       ! Dry-Bulb Temperature Range Modifier Schedule Name
  ASHRAEClearSky;                         ! Solar Model Indicator

OS:ComponentData,
  {37521014-7059-4970-819c-351a60351b49}, ! Handle
  Component Data 1,                       ! Name
  {63ce50b5-ee04-4f54-860f-61206e7f0440}, ! UUID
  {c850188b-d5c2-4e77-9eac-6b2294da06b0}, ! Version UUID
  1366307327,                             ! Creation Timestamp
  1366307327,                             ! Version Timestamp
  {020fa262-54b5-4e5d-804d-4e636fa32b27}; ! Name of Object 1

