
OS:Version,
  {44ca3aca-ac88-4d82-85ca-de32a3008cdc}, ! Handle
  0.9.3;                                  ! Version Identifier

OS:SizingPeriod:DesignDay,
  {4c464b6f-d17f-4b86-a33f-d2a3cb08e706}, ! Handle
  Hartford/Brainard Fiel Ann Clg 2% Condns Enth=>MDB, ! Name
  27.5,                                   ! Maximum Dry-Bulb Temperature {C}
  11.4,                                   ! Daily Dry-Bulb Temperature Range {deltaC}
  67700,                                  ! Humidity Indicating Conditions at Maximum Dry-Bulb {BasedOnField A3}
  101253,                                 ! Barometric Pressure {Pa}
  4.5,                                    ! Wind Speed {m/s}
  220,                                    ! Wind Direction {deg}
  0,                                      ! Sky Clearness
  0,                                      ! Rain Indicator
  0,                                      ! Snow Indicator
  21,                                     ! Day of Month
  7,                                      ! Month
  SummerDesignDay,                        ! Day Type
  0,                                      ! Daylight Saving Time Indicator
  Enthalpy,                               ! Humidity Indicating Type
  ,                                       ! Humidity Indicating Day Schedule Name
  DefaultMultipliers,                     ! Dry-Bulb Temperature Range Modifier Type
  ,                                       ! Dry-Bulb Temperature Range Modifier Schedule Name
  ASHRAETau,                              ! Solar Model Indicator
  ,                                       ! Beam Solar Day Schedule Name
  ,                                       ! Diffuse Solar Day Schedule Name
  0.486,                                  ! ASHRAE Taub {dimensionless}
  1.943;                                  ! ASHRAE Taud {dimensionless}

OS:ComponentData,
  {479dd2cb-5992-4609-8458-6f57850be8b6}, ! Handle
  Component Data 1,                       ! Name
  {f91dcc9e-bcf7-44ef-835f-88af805abe8b}, ! UUID
  {7342e990-10d2-4f17-80a8-cfc93c4a09a3}, ! Version UUID
  1366306755,                             ! Creation Timestamp
  1366306755,                             ! Version Timestamp
  {4c464b6f-d17f-4b86-a33f-d2a3cb08e706}; ! Name of Object 1

