
OS:Version,
  {af4b4403-63b7-486c-be54-da32c61d9299}, ! Handle
  0.9.3;                                  ! Version Identifier

OS:SizingPeriod:DesignDay,
  {6526d1e8-c336-4232-be2c-48a436b5326e}, ! Handle
  Baudette International Ap Ann Clg .4% Condns Enth=>MDB, ! Name
  27.9,                                   ! Maximum Dry-Bulb Temperature {C}
  11.5,                                   ! Daily Dry-Bulb Temperature Range {deltaC}
  69900,                                  ! Humidity Indicating Conditions at Maximum Dry-Bulb {BasedOnField A3}
  97423,                                  ! Barometric Pressure {Pa}
  5,                                      ! Wind Speed {m/s}
  200,                                    ! Wind Direction {deg}
  0,                                      ! Sky Clearness
  0,                                      ! Rain Indicator
  0,                                      ! Snow Indicator
  21,                                     ! Day of Month
  7,                                      ! Month
  SummerDesignDay,                        ! Day Type
  0,                                      ! Daylight Saving Time Indicator
  Enthalpy,                               ! Humidity Indicating Type
  ,                                       ! Humidity Indicating Day Schedule Name
  DefaultMultipliers,                     ! Dry-Bulb Temperature Range Modifier Type
  ,                                       ! Dry-Bulb Temperature Range Modifier Schedule Name
  ASHRAETau,                              ! Solar Model Indicator
  ,                                       ! Beam Solar Day Schedule Name
  ,                                       ! Diffuse Solar Day Schedule Name
  0.397,                                  ! ASHRAE Taub {dimensionless}
  2.236;                                  ! ASHRAE Taud {dimensionless}

OS:ComponentData,
  {772b8f95-00f8-4e34-a971-664bf2b5db28}, ! Handle
  Component Data 1,                       ! Name
  {5ce1aa9d-8152-47b2-b409-b13e49cab0f6}, ! UUID
  {14521ad9-b47e-4bbb-b395-f938dc5d81f4}, ! Version UUID
  1366308155,                             ! Creation Timestamp
  1366308155,                             ! Version Timestamp
  {6526d1e8-c336-4232-be2c-48a436b5326e}; ! Name of Object 1

