
OS:Version,
  {f0e419ff-9cc0-41b0-8a49-2f9c031aef02}, ! Handle
  0.9.3;                                  ! Version Identifier

OS:SizingPeriod:DesignDay,
  {f11b0955-935a-4734-bc63-605d0ab61fc3}, ! Handle
  Auburn Opelika Apt Ann Htg 99% Condns DB, ! Name
  -2.4,                                   ! Maximum Dry-Bulb Temperature {C}
  0,                                      ! Daily Dry-Bulb Temperature Range {deltaC}
  -2.4,                                   ! Humidity Indicating Conditions at Maximum Dry-Bulb {BasedOnField A3}
  98522,                                  ! Barometric Pressure {Pa}
  3.7,                                    ! Wind Speed {m/s}
  310,                                    ! Wind Direction {deg}
  0,                                      ! Sky Clearness
  0,                                      ! Rain Indicator
  0,                                      ! Snow Indicator
  21,                                     ! Day of Month
  12,                                     ! Month
  WinterDesignDay,                        ! Day Type
  0,                                      ! Daylight Saving Time Indicator
  Wetbulb,                                ! Humidity Indicating Type
  ,                                       ! Humidity Indicating Day Schedule Name
  DefaultMultipliers,                     ! Dry-Bulb Temperature Range Modifier Type
  ,                                       ! Dry-Bulb Temperature Range Modifier Schedule Name
  ASHRAEClearSky;                         ! Solar Model Indicator

OS:ComponentData,
  {3eb7defc-c5fa-48a8-9750-c4a4bfd0d4e3}, ! Handle
  Component Data 1,                       ! Name
  {80d7e25a-7d16-4213-9bb3-f749387e261f}, ! UUID
  {58bedb3d-fd88-4512-b6cd-ad51416b28f1}, ! Version UUID
  1366305637,                             ! Creation Timestamp
  1366305637,                             ! Version Timestamp
  {f11b0955-935a-4734-bc63-605d0ab61fc3}; ! Name of Object 1

