
OS:Version,
  {11a87fe4-d268-45a2-bf7a-ec4ef7aaf390}, ! Handle
  0.9.3;                                  ! Version Identifier

OS:SizingPeriod:DesignDay,
  {792e4dad-0b19-44e3-82c0-d23e7f50c5a4}, ! Handle
  Harrisburg Capital City Arpt Ann Htg 99% Condns DB, ! Name
  -10.4,                                  ! Maximum Dry-Bulb Temperature {C}
  0,                                      ! Daily Dry-Bulb Temperature Range {deltaC}
  -10.4,                                  ! Humidity Indicating Conditions at Maximum Dry-Bulb {BasedOnField A3}
  100082,                                 ! Barometric Pressure {Pa}
  3.5,                                    ! Wind Speed {m/s}
  270,                                    ! Wind Direction {deg}
  0,                                      ! Sky Clearness
  0,                                      ! Rain Indicator
  0,                                      ! Snow Indicator
  21,                                     ! Day of Month
  1,                                      ! Month
  WinterDesignDay,                        ! Day Type
  0,                                      ! Daylight Saving Time Indicator
  Wetbulb,                                ! Humidity Indicating Type
  ,                                       ! Humidity Indicating Day Schedule Name
  DefaultMultipliers,                     ! Dry-Bulb Temperature Range Modifier Type
  ,                                       ! Dry-Bulb Temperature Range Modifier Schedule Name
  ASHRAEClearSky;                         ! Solar Model Indicator

OS:ComponentData,
  {9b3b8819-2e0c-4bba-9c6d-20cf2016a9b9}, ! Handle
  Component Data 1,                       ! Name
  {c54efe71-be1d-42c2-92b0-75a3730aecb1}, ! UUID
  {bc02a8d8-645f-453a-9fb6-8ec4b1866193}, ! Version UUID
  1366310187,                             ! Creation Timestamp
  1366310187,                             ! Version Timestamp
  {792e4dad-0b19-44e3-82c0-d23e7f50c5a4}; ! Name of Object 1

