
OS:Version,
  {1737c475-0b24-4d2e-92bf-853bd98b35d6}, ! Handle
  0.9.3;                                  ! Version Identifier

OS:SizingPeriod:DesignDay,
  {587a07ce-76af-439f-8a2f-fb35752e24c9}, ! Handle
  Alpena County Regional Ap Ann Htg Wind 99% Condns WS=>MCDB, ! Name
  -6.4,                                   ! Maximum Dry-Bulb Temperature {C}
  0,                                      ! Daily Dry-Bulb Temperature Range {deltaC}
  -6.4,                                   ! Humidity Indicating Conditions at Maximum Dry-Bulb {BasedOnField A3}
  98828,                                  ! Barometric Pressure {Pa}
  9.2,                                    ! Wind Speed {m/s}
  260,                                    ! Wind Direction {deg}
  0,                                      ! Sky Clearness
  0,                                      ! Rain Indicator
  0,                                      ! Snow Indicator
  21,                                     ! Day of Month
  1,                                      ! Month
  WinterDesignDay,                        ! Day Type
  0,                                      ! Daylight Saving Time Indicator
  Wetbulb,                                ! Humidity Indicating Type
  ,                                       ! Humidity Indicating Day Schedule Name
  DefaultMultipliers,                     ! Dry-Bulb Temperature Range Modifier Type
  ,                                       ! Dry-Bulb Temperature Range Modifier Schedule Name
  ASHRAEClearSky;                         ! Solar Model Indicator

OS:ComponentData,
  {74f8b733-c74a-4a4c-9827-3d05e0fe7044}, ! Handle
  Component Data 1,                       ! Name
  {df69b48e-aaed-44e0-b694-a482fc40923d}, ! UUID
  {d71fb697-bd0a-4b63-850e-75a688927f90}, ! Version UUID
  1366307947,                             ! Creation Timestamp
  1366307947,                             ! Version Timestamp
  {587a07ce-76af-439f-8a2f-fb35752e24c9}; ! Name of Object 1

