
OS:Version,
  {16ad3e96-8bfa-4c06-8fec-43b5a5ddd513}, ! Handle
  0.9.3;                                  ! Version Identifier

OS:SizingPeriod:DesignDay,
  {dc96065f-36e3-4280-9e2c-1cf6ec0b4798}, ! Handle
  La Crosse Municipal Arpt Ann Clg 1% Condns DB=>MWB, ! Name
  31.7,                                   ! Maximum Dry-Bulb Temperature {C}
  11.1,                                   ! Daily Dry-Bulb Temperature Range {deltaC}
  23,                                     ! Humidity Indicating Conditions at Maximum Dry-Bulb {BasedOnField A3}
  98969,                                  ! Barometric Pressure {Pa}
  5.4,                                    ! Wind Speed {m/s}
  180,                                    ! Wind Direction {deg}
  0,                                      ! Sky Clearness
  0,                                      ! Rain Indicator
  0,                                      ! Snow Indicator
  21,                                     ! Day of Month
  7,                                      ! Month
  SummerDesignDay,                        ! Day Type
  0,                                      ! Daylight Saving Time Indicator
  Wetbulb,                                ! Humidity Indicating Type
  ,                                       ! Humidity Indicating Day Schedule Name
  DefaultMultipliers,                     ! Dry-Bulb Temperature Range Modifier Type
  ,                                       ! Dry-Bulb Temperature Range Modifier Schedule Name
  ASHRAETau,                              ! Solar Model Indicator
  ,                                       ! Beam Solar Day Schedule Name
  ,                                       ! Diffuse Solar Day Schedule Name
  0.431,                                  ! ASHRAE Taub {dimensionless}
  2.126;                                  ! ASHRAE Taud {dimensionless}

OS:ComponentData,
  {a0c094fd-5396-48ba-9abf-ae493f643326}, ! Handle
  Component Data 1,                       ! Name
  {81094cd0-76b5-4246-807e-ec696d1617ab}, ! UUID
  {f07b4a24-edb8-4260-ac74-117c7a077262}, ! Version UUID
  1366311513,                             ! Creation Timestamp
  1366311513,                             ! Version Timestamp
  {dc96065f-36e3-4280-9e2c-1cf6ec0b4798}; ! Name of Object 1

