
OS:Version,
  {59131164-dbe1-41dc-8044-9229ae7761cd}, ! Handle
  0.9.3;                                  ! Version Identifier

OS:SizingPeriod:DesignDay,
  {0e7bce3c-617e-4532-bed0-fb70ddc1fa32}, ! Handle
  La Crosse Ann Clg 1% Condns Enth=>MDB,  ! Name
  29.5,                                   ! Maximum Dry-Bulb Temperature {C}
  11.1,                                   ! Daily Dry-Bulb Temperature Range {deltaC}
  74600,                                  ! Humidity Indicating Conditions at Maximum Dry-Bulb {BasedOnField A3}
  98922,                                  ! Barometric Pressure {Pa}
  5.4,                                    ! Wind Speed {m/s}
  180,                                    ! Wind Direction {deg}
  0,                                      ! Sky Clearness
  0,                                      ! Rain Indicator
  0,                                      ! Snow Indicator
  21,                                     ! Day of Month
  7,                                      ! Month
  SummerDesignDay,                        ! Day Type
  0,                                      ! Daylight Saving Time Indicator
  Enthalpy,                               ! Humidity Indicating Type
  ,                                       ! Humidity Indicating Day Schedule Name
  DefaultMultipliers,                     ! Dry-Bulb Temperature Range Modifier Type
  ,                                       ! Dry-Bulb Temperature Range Modifier Schedule Name
  ASHRAETau,                              ! Solar Model Indicator
  ,                                       ! Beam Solar Day Schedule Name
  ,                                       ! Diffuse Solar Day Schedule Name
  0.431,                                  ! ASHRAE Taub {dimensionless}
  2.126;                                  ! ASHRAE Taud {dimensionless}

OS:ComponentData,
  {43682bdd-58bb-4f5d-a3b3-fd2d2fabb641}, ! Handle
  Component Data 1,                       ! Name
  {c57c06c0-fb72-4b32-b96d-92a7bd641ab5}, ! UUID
  {6ea2f7fa-f74d-4844-9f55-a6079b31f0f9}, ! Version UUID
  1366311510,                             ! Creation Timestamp
  1366311510,                             ! Version Timestamp
  {0e7bce3c-617e-4532-bed0-fb70ddc1fa32}; ! Name of Object 1

