
OS:Version,
  {c48d6af4-9709-4039-9e88-c9a9752ef07c}, ! Handle
  0.9.3;                                  ! Version Identifier

OS:SizingPeriod:DesignDay,
  {efa82afb-4dc9-4d7c-9543-f8a393d0c60e}, ! Handle
  Hutchinson  Awos Ann Clg 1% Condns Enth=>MDB, ! Name
  28.6,                                   ! Maximum Dry-Bulb Temperature {C}
  10.9,                                   ! Daily Dry-Bulb Temperature Range {deltaC}
  74300,                                  ! Humidity Indicating Conditions at Maximum Dry-Bulb {BasedOnField A3}
  97504,                                  ! Barometric Pressure {Pa}
  4.5,                                    ! Wind Speed {m/s}
  170,                                    ! Wind Direction {deg}
  0,                                      ! Sky Clearness
  0,                                      ! Rain Indicator
  0,                                      ! Snow Indicator
  21,                                     ! Day of Month
  7,                                      ! Month
  SummerDesignDay,                        ! Day Type
  0,                                      ! Daylight Saving Time Indicator
  Enthalpy,                               ! Humidity Indicating Type
  ,                                       ! Humidity Indicating Day Schedule Name
  DefaultMultipliers,                     ! Dry-Bulb Temperature Range Modifier Type
  ,                                       ! Dry-Bulb Temperature Range Modifier Schedule Name
  ASHRAETau,                              ! Solar Model Indicator
  ,                                       ! Beam Solar Day Schedule Name
  ,                                       ! Diffuse Solar Day Schedule Name
  0.404,                                  ! ASHRAE Taub {dimensionless}
  2.234;                                  ! ASHRAE Taud {dimensionless}

OS:ComponentData,
  {7fe980a4-c4d4-46e1-aedf-3fc293231049}, ! Handle
  Component Data 1,                       ! Name
  {221a377c-f481-4e9f-bf48-359bb04c8d3d}, ! UUID
  {fa8127d9-df81-4b01-a328-17a58b0b8c69}, ! Version UUID
  1366308261,                             ! Creation Timestamp
  1366308261,                             ! Version Timestamp
  {efa82afb-4dc9-4d7c-9543-f8a393d0c60e}; ! Name of Object 1

