
OS:Version,
  {946942a2-8e61-4662-a265-69a5cb7520f4}, ! Handle
  0.9.3;                                  ! Version Identifier

OS:SizingPeriod:DesignDay,
  {b6f09d36-3ae4-4aa9-a615-09e35b7649a7}, ! Handle
  Cortez Montezuma Co Ann Clg .4% Condns DP=>MDB, ! Name
  22.2,                                   ! Maximum Dry-Bulb Temperature {C}
  19.3,                                   ! Daily Dry-Bulb Temperature Range {deltaC}
  17.1,                                   ! Humidity Indicating Conditions at Maximum Dry-Bulb {BasedOnField A3}
  81459,                                  ! Barometric Pressure {Pa}
  4.8,                                    ! Wind Speed {m/s}
  290,                                    ! Wind Direction {deg}
  0,                                      ! Sky Clearness
  0,                                      ! Rain Indicator
  0,                                      ! Snow Indicator
  21,                                     ! Day of Month
  7,                                      ! Month
  SummerDesignDay,                        ! Day Type
  0,                                      ! Daylight Saving Time Indicator
  Dewpoint,                               ! Humidity Indicating Type
  ,                                       ! Humidity Indicating Day Schedule Name
  DefaultMultipliers,                     ! Dry-Bulb Temperature Range Modifier Type
  ,                                       ! Dry-Bulb Temperature Range Modifier Schedule Name
  ASHRAETau,                              ! Solar Model Indicator
  ,                                       ! Beam Solar Day Schedule Name
  ,                                       ! Diffuse Solar Day Schedule Name
  0.384,                                  ! ASHRAE Taub {dimensionless}
  2.183;                                  ! ASHRAE Taud {dimensionless}

