
OS:Version,
  {2051bfd7-afe9-4b5c-81ea-24033f1b4001}, ! Handle
  0.9.3;                                  ! Version Identifier

OS:SizingPeriod:DesignDay,
  {61e3f347-ba72-454c-a4c3-820481593a9c}, ! Handle
  Burley Municipal Arpt Ann Htg 99% Condns DB, ! Name
  -14.3,                                  ! Maximum Dry-Bulb Temperature {C}
  0,                                      ! Daily Dry-Bulb Temperature Range {deltaC}
  -14.3,                                  ! Humidity Indicating Conditions at Maximum Dry-Bulb {BasedOnField A3}
  87002,                                  ! Barometric Pressure {Pa}
  2.6,                                    ! Wind Speed {m/s}
  60,                                     ! Wind Direction {deg}
  0,                                      ! Sky Clearness
  0,                                      ! Rain Indicator
  0,                                      ! Snow Indicator
  21,                                     ! Day of Month
  12,                                     ! Month
  WinterDesignDay,                        ! Day Type
  0,                                      ! Daylight Saving Time Indicator
  Wetbulb,                                ! Humidity Indicating Type
  ,                                       ! Humidity Indicating Day Schedule Name
  DefaultMultipliers,                     ! Dry-Bulb Temperature Range Modifier Type
  ,                                       ! Dry-Bulb Temperature Range Modifier Schedule Name
  ASHRAEClearSky;                         ! Solar Model Indicator

OS:ComponentData,
  {b7857c0e-09a4-4328-9543-0f803f1622f9}, ! Handle
  Component Data 1,                       ! Name
  {2d08a78c-e02b-4133-a7e7-bf46ac10497b}, ! UUID
  {4a157609-cc00-42ed-ba37-5e2f31b4ad54}, ! Version UUID
  1366307273,                             ! Creation Timestamp
  1366307273,                             ! Version Timestamp
  {61e3f347-ba72-454c-a4c3-820481593a9c}; ! Name of Object 1

