
OS:Version,
  {655d999d-90c6-49f5-ad9c-798bb2e21b3c}, ! Handle
  0.9.3;                                  ! Version Identifier

OS:SizingPeriod:DesignDay,
  {e8fe2aa8-ff5f-400d-b30c-ea8c8719be04}, ! Handle
  Douglas Bisbee Douglas Intl A Ann Htg 99% Condns DB, ! Name
  -3.6,                                   ! Maximum Dry-Bulb Temperature {C}
  0,                                      ! Daily Dry-Bulb Temperature Range {deltaC}
  -3.6,                                   ! Humidity Indicating Conditions at Maximum Dry-Bulb {BasedOnField A3}
  87193,                                  ! Barometric Pressure {Pa}
  1.6,                                    ! Wind Speed {m/s}
  10,                                     ! Wind Direction {deg}
  0,                                      ! Sky Clearness
  0,                                      ! Rain Indicator
  0,                                      ! Snow Indicator
  21,                                     ! Day of Month
  12,                                     ! Month
  WinterDesignDay,                        ! Day Type
  0,                                      ! Daylight Saving Time Indicator
  Wetbulb,                                ! Humidity Indicating Type
  ,                                       ! Humidity Indicating Day Schedule Name
  DefaultMultipliers,                     ! Dry-Bulb Temperature Range Modifier Type
  ,                                       ! Dry-Bulb Temperature Range Modifier Schedule Name
  ASHRAEClearSky;                         ! Solar Model Indicator

OS:ComponentData,
  {4e6bacc4-07a7-4248-9aa2-c12ed7ef9d0d}, ! Handle
  Component Data 1,                       ! Name
  {accbeed0-882f-4ee6-98d0-bf430d96109f}, ! UUID
  {a73b5ab2-a416-4d45-abd2-63f0b5ae74ee}, ! Version UUID
  1366306270,                             ! Creation Timestamp
  1366306270,                             ! Version Timestamp
  {e8fe2aa8-ff5f-400d-b30c-ea8c8719be04}; ! Name of Object 1

