
OS:Version,
  {94735d29-06e4-41dc-959e-45861f4d5f8d}, ! Handle
  0.9.3;                                  ! Version Identifier

OS:SizingPeriod:DesignDay,
  {5940932d-befc-4e0b-bbc3-7ff7de7661a9}, ! Handle
  Corpus Christi Intl Arpt  Ut Ann Clg 1% Condns DP=>MDB, ! Name
  28.3,                                   ! Maximum Dry-Bulb Temperature {C}
  10.1,                                   ! Daily Dry-Bulb Temperature Range {deltaC}
  25.7,                                   ! Humidity Indicating Conditions at Maximum Dry-Bulb {BasedOnField A3}
  101253,                                 ! Barometric Pressure {Pa}
  6.6,                                    ! Wind Speed {m/s}
  140,                                    ! Wind Direction {deg}
  0,                                      ! Sky Clearness
  0,                                      ! Rain Indicator
  0,                                      ! Snow Indicator
  21,                                     ! Day of Month
  8,                                      ! Month
  SummerDesignDay,                        ! Day Type
  0,                                      ! Daylight Saving Time Indicator
  Dewpoint,                               ! Humidity Indicating Type
  ,                                       ! Humidity Indicating Day Schedule Name
  DefaultMultipliers,                     ! Dry-Bulb Temperature Range Modifier Type
  ,                                       ! Dry-Bulb Temperature Range Modifier Schedule Name
  ASHRAETau,                              ! Solar Model Indicator
  ,                                       ! Beam Solar Day Schedule Name
  ,                                       ! Diffuse Solar Day Schedule Name
  0.463,                                  ! ASHRAE Taub {dimensionless}
  2.116;                                  ! ASHRAE Taud {dimensionless}

OS:ComponentData,
  {b9fe5991-ec84-4372-9753-c318eda46ec3}, ! Handle
  Component Data 1,                       ! Name
  {aa561e46-7a5c-4154-8d38-883639793a9e}, ! UUID
  {f60e14be-1683-4ad8-b642-c5924d9dbdf9}, ! Version UUID
  1366310630,                             ! Creation Timestamp
  1366310630,                             ! Version Timestamp
  {5940932d-befc-4e0b-bbc3-7ff7de7661a9}; ! Name of Object 1

