
OS:Version,
  {74b2e4cb-bb7e-418b-b639-c240d7315411}, ! Handle
  0.9.3;                                  ! Version Identifier

OS:SizingPeriod:DesignDay,
  {065e948a-8bc4-4a70-91cc-2b9d4488b8b8}, ! Handle
  Glen Burnie/Baltimore/ Ann Htg 99% Condns DB, ! Name
  -8.2,                                   ! Maximum Dry-Bulb Temperature {C}
  0,                                      ! Daily Dry-Bulb Temperature Range {deltaC}
  -8.2,                                   ! Humidity Indicating Conditions at Maximum Dry-Bulb {BasedOnField A3}
  100762,                                 ! Barometric Pressure {Pa}
  3.9,                                    ! Wind Speed {m/s}
  290,                                    ! Wind Direction {deg}
  0,                                      ! Sky Clearness
  0,                                      ! Rain Indicator
  0,                                      ! Snow Indicator
  21,                                     ! Day of Month
  1,                                      ! Month
  WinterDesignDay,                        ! Day Type
  0,                                      ! Daylight Saving Time Indicator
  Wetbulb,                                ! Humidity Indicating Type
  ,                                       ! Humidity Indicating Day Schedule Name
  DefaultMultipliers,                     ! Dry-Bulb Temperature Range Modifier Type
  ,                                       ! Dry-Bulb Temperature Range Modifier Schedule Name
  ASHRAEClearSky;                         ! Solar Model Indicator

OS:ComponentData,
  {83b1ab67-8060-4460-869d-3840abdd4de5}, ! Handle
  Component Data 1,                       ! Name
  {4e725811-47f2-4847-b2fa-556d4eca6e64}, ! UUID
  {30114427-9cd5-482a-a02b-964b234fc96b}, ! Version UUID
  1366307837,                             ! Creation Timestamp
  1366307837,                             ! Version Timestamp
  {065e948a-8bc4-4a70-91cc-2b9d4488b8b8}; ! Name of Object 1

