
OS:Version,
  {4bf487f2-a67d-45af-822e-89f7112e8fec}, ! Handle
  0.9.3;                                  ! Version Identifier

OS:SizingPeriod:DesignDay,
  {4bd77e63-8535-4531-9b74-650f4cd0d629}, ! Handle
  Fort Bragg Simmons Aaf Ann Clg 1% Condns Enth=>MDB, ! Name
  31.7,                                   ! Maximum Dry-Bulb Temperature {C}
  9.9,                                    ! Daily Dry-Bulb Temperature Range {deltaC}
  78900,                                  ! Humidity Indicating Conditions at Maximum Dry-Bulb {BasedOnField A3}
  100213,                                 ! Barometric Pressure {Pa}
  3,                                      ! Wind Speed {m/s}
  210,                                    ! Wind Direction {deg}
  0,                                      ! Sky Clearness
  0,                                      ! Rain Indicator
  0,                                      ! Snow Indicator
  21,                                     ! Day of Month
  7,                                      ! Month
  SummerDesignDay,                        ! Day Type
  0,                                      ! Daylight Saving Time Indicator
  Enthalpy,                               ! Humidity Indicating Type
  ,                                       ! Humidity Indicating Day Schedule Name
  DefaultMultipliers,                     ! Dry-Bulb Temperature Range Modifier Type
  ,                                       ! Dry-Bulb Temperature Range Modifier Schedule Name
  ASHRAETau,                              ! Solar Model Indicator
  ,                                       ! Beam Solar Day Schedule Name
  ,                                       ! Diffuse Solar Day Schedule Name
  0.582,                                  ! ASHRAE Taub {dimensionless}
  1.716;                                  ! ASHRAE Taud {dimensionless}

OS:ComponentData,
  {89f3bb0a-2592-4080-97a0-15011de52fb2}, ! Handle
  Component Data 1,                       ! Name
  {c3f17b1c-cd04-4e77-bbe6-6c7fb7ba7995}, ! UUID
  {3b6629ee-34cc-4c2e-8003-e29b3175b44d}, ! Version UUID
  1366308921,                             ! Creation Timestamp
  1366308921,                             ! Version Timestamp
  {4bd77e63-8535-4531-9b74-650f4cd0d629}; ! Name of Object 1

