
OS:Version,
  {61b6acb2-7545-495d-9046-f7a0927cc938}, ! Handle
  0.9.3;                                  ! Version Identifier

OS:SizingPeriod:DesignDay,
  {606f22fa-dbde-4d9c-9aec-ef61ef689f7a}, ! Handle
  Little Rock/AFB Ann Clg 1% Condns Enth=>MDB, ! Name
  32.6,                                   ! Maximum Dry-Bulb Temperature {C}
  10.6,                                   ! Daily Dry-Bulb Temperature Range {deltaC}
  81600,                                  ! Humidity Indicating Conditions at Maximum Dry-Bulb {BasedOnField A3}
  100189,                                 ! Barometric Pressure {Pa}
  3.9,                                    ! Wind Speed {m/s}
  200,                                    ! Wind Direction {deg}
  0,                                      ! Sky Clearness
  0,                                      ! Rain Indicator
  0,                                      ! Snow Indicator
  21,                                     ! Day of Month
  7,                                      ! Month
  SummerDesignDay,                        ! Day Type
  0,                                      ! Daylight Saving Time Indicator
  Enthalpy,                               ! Humidity Indicating Type
  ,                                       ! Humidity Indicating Day Schedule Name
  DefaultMultipliers,                     ! Dry-Bulb Temperature Range Modifier Type
  ,                                       ! Dry-Bulb Temperature Range Modifier Schedule Name
  ASHRAETau,                              ! Solar Model Indicator
  ,                                       ! Beam Solar Day Schedule Name
  ,                                       ! Diffuse Solar Day Schedule Name
  0.517,                                  ! ASHRAE Taub {dimensionless}
  1.901;                                  ! ASHRAE Taud {dimensionless}

OS:ComponentData,
  {3b961061-9469-4c69-9e30-a18b4b0a325b}, ! Handle
  Component Data 1,                       ! Name
  {d20be1e0-3844-47a8-97bb-6ac400c10ebe}, ! UUID
  {60b6750b-024d-488d-befa-99428cf001e3}, ! Version UUID
  1366306225,                             ! Creation Timestamp
  1366306225,                             ! Version Timestamp
  {606f22fa-dbde-4d9c-9aec-ef61ef689f7a}; ! Name of Object 1

