
OS:Version,
  {ce18cce6-a17c-42f5-9423-1585640df68e}, ! Handle
  0.9.3;                                  ! Version Identifier

OS:SizingPeriod:DesignDay,
  {94682e91-dd54-498d-bf5c-aee50140edd5}, ! Handle
  Augusta Ann Htg Wind 99% Condns WS=>MCDB, ! Name
  9.3,                                    ! Maximum Dry-Bulb Temperature {C}
  0,                                      ! Daily Dry-Bulb Temperature Range {deltaC}
  9.3,                                    ! Humidity Indicating Conditions at Maximum Dry-Bulb {BasedOnField A3}
  100786,                                 ! Barometric Pressure {Pa}
  9.1,                                    ! Wind Speed {m/s}
  300,                                    ! Wind Direction {deg}
  0,                                      ! Sky Clearness
  0,                                      ! Rain Indicator
  0,                                      ! Snow Indicator
  21,                                     ! Day of Month
  1,                                      ! Month
  WinterDesignDay,                        ! Day Type
  0,                                      ! Daylight Saving Time Indicator
  Wetbulb,                                ! Humidity Indicating Type
  ,                                       ! Humidity Indicating Day Schedule Name
  DefaultMultipliers,                     ! Dry-Bulb Temperature Range Modifier Type
  ,                                       ! Dry-Bulb Temperature Range Modifier Schedule Name
  ASHRAEClearSky;                         ! Solar Model Indicator

OS:ComponentData,
  {32d7cb6d-3940-479c-a234-b02767ef7185}, ! Handle
  Component Data 1,                       ! Name
  {ccac641e-830a-4db9-b9fb-20ba480e7fb8}, ! UUID
  {ff1f62dc-3fb1-4ef0-89fb-e1064869da47}, ! Version UUID
  1366306984,                             ! Creation Timestamp
  1366306984,                             ! Version Timestamp
  {94682e91-dd54-498d-bf5c-aee50140edd5}; ! Name of Object 1

