
OS:Version,
  {e48c2d74-30a9-45df-a701-d9b11643baf3}, ! Handle
  0.9.3;                                  ! Version Identifier

OS:SizingPeriod:DesignDay,
  {4377402e-2864-494b-8a76-f2881d002a6b}, ! Handle
  Ketchikan Intl Ap Ann Htg Wind 99.6% Condns WS=>MCDB, ! Name
  5.5,                                    ! Maximum Dry-Bulb Temperature {C}
  0,                                      ! Daily Dry-Bulb Temperature Range {deltaC}
  5.5,                                    ! Humidity Indicating Conditions at Maximum Dry-Bulb {BasedOnField A3}
  101049,                                 ! Barometric Pressure {Pa}
  13.1,                                   ! Wind Speed {m/s}
  290,                                    ! Wind Direction {deg}
  0,                                      ! Sky Clearness
  0,                                      ! Rain Indicator
  0,                                      ! Snow Indicator
  21,                                     ! Day of Month
  1,                                      ! Month
  WinterDesignDay,                        ! Day Type
  0,                                      ! Daylight Saving Time Indicator
  Wetbulb,                                ! Humidity Indicating Type
  ,                                       ! Humidity Indicating Day Schedule Name
  DefaultMultipliers,                     ! Dry-Bulb Temperature Range Modifier Type
  ,                                       ! Dry-Bulb Temperature Range Modifier Schedule Name
  ASHRAEClearSky;                         ! Solar Model Indicator

OS:ComponentData,
  {c9664c1a-ceef-44e8-8a7b-9ba031ef6526}, ! Handle
  Component Data 1,                       ! Name
  {676d7059-f592-42dd-a014-8a98ceea6dad}, ! UUID
  {ea63e086-00e0-4639-829c-4ad654162dcd}, ! Version UUID
  1366305353,                             ! Creation Timestamp
  1366305353,                             ! Version Timestamp
  {4377402e-2864-494b-8a76-f2881d002a6b}; ! Name of Object 1

