
OS:Version,
  {74a3c774-fb10-4703-831e-7f82629faa69}, ! Handle
  0.9.3;                                  ! Version Identifier

OS:SizingPeriod:DesignDay,
  {49c635c0-1486-4d96-b0b3-75c0273d6a35}, ! Handle
  Columbia Metro Arpt Ann Htg 99.6% Condns DB, ! Name
  -5.5,                                   ! Maximum Dry-Bulb Temperature {C}
  0,                                      ! Daily Dry-Bulb Temperature Range {deltaC}
  -5.5,                                   ! Humidity Indicating Conditions at Maximum Dry-Bulb {BasedOnField A3}
  100547,                                 ! Barometric Pressure {Pa}
  1.9,                                    ! Wind Speed {m/s}
  270,                                    ! Wind Direction {deg}
  0,                                      ! Sky Clearness
  0,                                      ! Rain Indicator
  0,                                      ! Snow Indicator
  21,                                     ! Day of Month
  1,                                      ! Month
  WinterDesignDay,                        ! Day Type
  0,                                      ! Daylight Saving Time Indicator
  Wetbulb,                                ! Humidity Indicating Type
  ,                                       ! Humidity Indicating Day Schedule Name
  DefaultMultipliers,                     ! Dry-Bulb Temperature Range Modifier Type
  ,                                       ! Dry-Bulb Temperature Range Modifier Schedule Name
  ASHRAEClearSky;                         ! Solar Model Indicator

OS:ComponentData,
  {3fc7acb9-09d4-4161-86b4-9a14e0c9ca28}, ! Handle
  Component Data 1,                       ! Name
  {00d7df50-7b89-48b5-9afb-c0c55bbb80fc}, ! UUID
  {a8710b47-dbb3-4fa0-a89b-b10733e38a26}, ! Version UUID
  1366310347,                             ! Creation Timestamp
  1366310347,                             ! Version Timestamp
  {49c635c0-1486-4d96-b0b3-75c0273d6a35}; ! Name of Object 1

