
OS:Version,
  {99a036d3-8550-4a51-8a06-594702c9aa83}, ! Handle
  0.9.3;                                  ! Version Identifier

OS:SizingPeriod:DesignDay,
  {7c4d8893-e0e7-4247-8ade-4a80195d63aa}, ! Handle
  Fort Wayne Ann Clg 1% Condns DB=>MWB,   ! Name
  31.3,                                   ! Maximum Dry-Bulb Temperature {C}
  11.1,                                   ! Daily Dry-Bulb Temperature Range {deltaC}
  22.9,                                   ! Humidity Indicating Conditions at Maximum Dry-Bulb {BasedOnField A3}
  98334,                                  ! Barometric Pressure {Pa}
  5,                                      ! Wind Speed {m/s}
  240,                                    ! Wind Direction {deg}
  0,                                      ! Sky Clearness
  0,                                      ! Rain Indicator
  0,                                      ! Snow Indicator
  21,                                     ! Day of Month
  7,                                      ! Month
  SummerDesignDay,                        ! Day Type
  0,                                      ! Daylight Saving Time Indicator
  Wetbulb,                                ! Humidity Indicating Type
  ,                                       ! Humidity Indicating Day Schedule Name
  DefaultMultipliers,                     ! Dry-Bulb Temperature Range Modifier Type
  ,                                       ! Dry-Bulb Temperature Range Modifier Schedule Name
  ASHRAETau,                              ! Solar Model Indicator
  ,                                       ! Beam Solar Day Schedule Name
  ,                                       ! Diffuse Solar Day Schedule Name
  0.451,                                  ! ASHRAE Taub {dimensionless}
  2.059;                                  ! ASHRAE Taud {dimensionless}

OS:ComponentData,
  {67e88f1d-189a-4f02-a586-32f6dcaab575}, ! Handle
  Component Data 1,                       ! Name
  {ec771194-f9d6-43c8-8900-d6c7c5ef2f44}, ! UUID
  {9fea0c4a-f1c9-4879-8d4b-47cf651cd06f}, ! Version UUID
  1366307441,                             ! Creation Timestamp
  1366307441,                             ! Version Timestamp
  {7c4d8893-e0e7-4247-8ade-4a80195d63aa}; ! Name of Object 1

