
OS:Version,
  {a05d8cce-2fdc-40df-901f-96082c72094a}, ! Handle
  0.9.3;                                  ! Version Identifier

OS:SizingPeriod:DesignDay,
  {54f19afb-5b1c-43ae-89ac-5954727e0209}, ! Handle
  Laredo AFB Ann Clg .4% Condns WB=>MDB,  ! Name
  33.2,                                   ! Maximum Dry-Bulb Temperature {C}
  11.6,                                   ! Daily Dry-Bulb Temperature Range {deltaC}
  26.1,                                   ! Humidity Indicating Conditions at Maximum Dry-Bulb {BasedOnField A3}
  99512,                                  ! Barometric Pressure {Pa}
  6,                                      ! Wind Speed {m/s}
  130,                                    ! Wind Direction {deg}
  0,                                      ! Sky Clearness
  0,                                      ! Rain Indicator
  0,                                      ! Snow Indicator
  21,                                     ! Day of Month
  8,                                      ! Month
  SummerDesignDay,                        ! Day Type
  0,                                      ! Daylight Saving Time Indicator
  Wetbulb,                                ! Humidity Indicating Type
  ,                                       ! Humidity Indicating Day Schedule Name
  DefaultMultipliers,                     ! Dry-Bulb Temperature Range Modifier Type
  ,                                       ! Dry-Bulb Temperature Range Modifier Schedule Name
  ASHRAETau,                              ! Solar Model Indicator
  ,                                       ! Beam Solar Day Schedule Name
  ,                                       ! Diffuse Solar Day Schedule Name
  0.469,                                  ! ASHRAE Taub {dimensionless}
  2.06;                                   ! ASHRAE Taud {dimensionless}

OS:ComponentData,
  {20cbbb55-e32b-4513-a2c4-9e3706c835f6}, ! Handle
  Component Data 1,                       ! Name
  {573fb2cb-06d1-41d7-a236-2d6ff6062cab}, ! UUID
  {8549b05e-4538-44a4-bf66-8f2f04efe0fc}, ! Version UUID
  1366310780,                             ! Creation Timestamp
  1366310780,                             ! Version Timestamp
  {54f19afb-5b1c-43ae-89ac-5954727e0209}; ! Name of Object 1

