
OS:Version,
  {7d80d05b-5882-443b-956f-2195244a6f5f}, ! Handle
  0.9.3;                                  ! Version Identifier

OS:SizingPeriod:DesignDay,
  {fbbe804f-f436-4bc5-9a20-1092ddf59fd2}, ! Handle
  Lamar Municipal Ann Htg Wind 99% Condns WS=>MCDB, ! Name
  4.3,                                    ! Maximum Dry-Bulb Temperature {C}
  0,                                      ! Daily Dry-Bulb Temperature Range {deltaC}
  4.3,                                    ! Humidity Indicating Conditions at Maximum Dry-Bulb {BasedOnField A3}
  88477,                                  ! Barometric Pressure {Pa}
  11.7,                                   ! Wind Speed {m/s}
  220,                                    ! Wind Direction {deg}
  0,                                      ! Sky Clearness
  0,                                      ! Rain Indicator
  0,                                      ! Snow Indicator
  21,                                     ! Day of Month
  12,                                     ! Month
  WinterDesignDay,                        ! Day Type
  0,                                      ! Daylight Saving Time Indicator
  Wetbulb,                                ! Humidity Indicating Type
  ,                                       ! Humidity Indicating Day Schedule Name
  DefaultMultipliers,                     ! Dry-Bulb Temperature Range Modifier Type
  ,                                       ! Dry-Bulb Temperature Range Modifier Schedule Name
  ASHRAEClearSky;                         ! Solar Model Indicator

OS:ComponentData,
  {d152ea23-8ee7-43bc-86d9-4d16c801cdb3}, ! Handle
  Component Data 1,                       ! Name
  {cbe28e07-6e24-4cfd-8a0d-cf3c661b0dd2}, ! UUID
  {7fe83518-7cad-4df7-96d5-721a533304de}, ! Version UUID
  1366306716,                             ! Creation Timestamp
  1366306716,                             ! Version Timestamp
  {fbbe804f-f436-4bc5-9a20-1092ddf59fd2}; ! Name of Object 1

