
OS:Version,
  {77b3cb2f-158a-4b86-af55-83a370cbc275}, ! Handle
  0.9.3;                                  ! Version Identifier

OS:SizingPeriod:DesignDay,
  {0c3ce900-117f-48ea-8cb7-4bfaa6a0a303}, ! Handle
  Dodge City Regional Ap Ann Clg 2% Condns DP=>MDB, ! Name
  25.3,                                   ! Maximum Dry-Bulb Temperature {C}
  13.9,                                   ! Daily Dry-Bulb Temperature Range {deltaC}
  19.9,                                   ! Humidity Indicating Conditions at Maximum Dry-Bulb {BasedOnField A3}
  92243,                                  ! Barometric Pressure {Pa}
  7.4,                                    ! Wind Speed {m/s}
  180,                                    ! Wind Direction {deg}
  0,                                      ! Sky Clearness
  0,                                      ! Rain Indicator
  0,                                      ! Snow Indicator
  21,                                     ! Day of Month
  7,                                      ! Month
  SummerDesignDay,                        ! Day Type
  0,                                      ! Daylight Saving Time Indicator
  Dewpoint,                               ! Humidity Indicating Type
  ,                                       ! Humidity Indicating Day Schedule Name
  DefaultMultipliers,                     ! Dry-Bulb Temperature Range Modifier Type
  ,                                       ! Dry-Bulb Temperature Range Modifier Schedule Name
  ASHRAETau,                              ! Solar Model Indicator
  ,                                       ! Beam Solar Day Schedule Name
  ,                                       ! Diffuse Solar Day Schedule Name
  0.419,                                  ! ASHRAE Taub {dimensionless}
  2.142;                                  ! ASHRAE Taud {dimensionless}

OS:ComponentData,
  {b39cd002-bf57-4e35-b13c-bae8aec37dcd}, ! Handle
  Component Data 1,                       ! Name
  {edb71de3-c2e6-47f5-acde-3b54d3f0085f}, ! UUID
  {35a03fd3-edd3-49eb-9f1e-fc076feb4dbe}, ! Version UUID
  1366307518,                             ! Creation Timestamp
  1366307518,                             ! Version Timestamp
  {0c3ce900-117f-48ea-8cb7-4bfaa6a0a303}; ! Name of Object 1

