
OS:Version,
  {196d784a-5f9c-4ead-afc9-0847739b01ba}, ! Handle
  0.9.3;                                  ! Version Identifier

OS:SizingPeriod:DesignDay,
  {a36a1f2b-0d7b-46fd-a62a-dfb316402b2b}, ! Handle
  Benson Muni Ann Clg 2% Condns Enth=>MDB, ! Name
  27.7,                                   ! Maximum Dry-Bulb Temperature {C}
  12.1,                                   ! Daily Dry-Bulb Temperature Range {deltaC}
  68600,                                  ! Humidity Indicating Conditions at Maximum Dry-Bulb {BasedOnField A3}
  97574,                                  ! Barometric Pressure {Pa}
  5.8,                                    ! Wind Speed {m/s}
  220,                                    ! Wind Direction {deg}
  0,                                      ! Sky Clearness
  0,                                      ! Rain Indicator
  0,                                      ! Snow Indicator
  21,                                     ! Day of Month
  7,                                      ! Month
  SummerDesignDay,                        ! Day Type
  0,                                      ! Daylight Saving Time Indicator
  Enthalpy,                               ! Humidity Indicating Type
  ,                                       ! Humidity Indicating Day Schedule Name
  DefaultMultipliers,                     ! Dry-Bulb Temperature Range Modifier Type
  ,                                       ! Dry-Bulb Temperature Range Modifier Schedule Name
  ASHRAETau,                              ! Solar Model Indicator
  ,                                       ! Beam Solar Day Schedule Name
  ,                                       ! Diffuse Solar Day Schedule Name
  0.398,                                  ! ASHRAE Taub {dimensionless}
  2.251;                                  ! ASHRAE Taud {dimensionless}

OS:ComponentData,
  {6cf9dc46-3559-4599-917d-27407c966767}, ! Handle
  Component Data 1,                       ! Name
  {ffdcfe95-9f87-4019-bd62-d0fe6226d07a}, ! UUID
  {09475e14-a93f-4e2a-844e-be8febb4fcf6}, ! Version UUID
  1366308168,                             ! Creation Timestamp
  1366308168,                             ! Version Timestamp
  {a36a1f2b-0d7b-46fd-a62a-dfb316402b2b}; ! Name of Object 1

