
OS:Version,
  {ae558587-50fd-40c1-a5a0-4f2a6b01584b}, ! Handle
  0.9.3;                                  ! Version Identifier

OS:SizingPeriod:DesignDay,
  {ec6a4bc8-1de1-4863-ac7d-bc13a507e41c}, ! Handle
  Charleston Ann Hum_n 99.6% Condns DP=>MCDB, ! Name
  -11,                                    ! Maximum Dry-Bulb Temperature {C}
  0,                                      ! Daily Dry-Bulb Temperature Range {deltaC}
  -18.5,                                  ! Humidity Indicating Conditions at Maximum Dry-Bulb {BasedOnField A3}
  97784,                                  ! Barometric Pressure {Pa}
  1.9,                                    ! Wind Speed {m/s}
  240,                                    ! Wind Direction {deg}
  0,                                      ! Sky Clearness
  0,                                      ! Rain Indicator
  0,                                      ! Snow Indicator
  21,                                     ! Day of Month
  1,                                      ! Month
  WinterDesignDay,                        ! Day Type
  0,                                      ! Daylight Saving Time Indicator
  Dewpoint,                               ! Humidity Indicating Type
  ,                                       ! Humidity Indicating Day Schedule Name
  DefaultMultipliers,                     ! Dry-Bulb Temperature Range Modifier Type
  ,                                       ! Dry-Bulb Temperature Range Modifier Schedule Name
  ASHRAEClearSky;                         ! Solar Model Indicator

OS:ComponentData,
  {ea1502cd-9f82-4b79-92d0-e1d7f62d727c}, ! Handle
  Component Data 1,                       ! Name
  {4d8b9007-56dd-41c4-aef7-7762e49d1db2}, ! UUID
  {e76475d3-63b9-4054-aee9-9e7de9fdf208}, ! Version UUID
  1366311619,                             ! Creation Timestamp
  1366311619,                             ! Version Timestamp
  {ec6a4bc8-1de1-4863-ac7d-bc13a507e41c}; ! Name of Object 1

