
OS:Version,
  {0b453852-4935-4608-8ae5-16bc40966a2e}, ! Handle
  0.9.3;                                  ! Version Identifier

OS:SizingPeriod:DesignDay,
  {21c64abf-7deb-49a6-906c-fcfa279cb1c0}, ! Handle
  Eau Claire Ann Hum_n 99% Condns DP=>MCDB, ! Name
  -22.7,                                  ! Maximum Dry-Bulb Temperature {C}
  0,                                      ! Daily Dry-Bulb Temperature Range {deltaC}
  -27.7,                                  ! Humidity Indicating Conditions at Maximum Dry-Bulb {BasedOnField A3}
  98053,                                  ! Barometric Pressure {Pa}
  2.6,                                    ! Wind Speed {m/s}
  250,                                    ! Wind Direction {deg}
  0,                                      ! Sky Clearness
  0,                                      ! Rain Indicator
  0,                                      ! Snow Indicator
  21,                                     ! Day of Month
  1,                                      ! Month
  WinterDesignDay,                        ! Day Type
  0,                                      ! Daylight Saving Time Indicator
  Dewpoint,                               ! Humidity Indicating Type
  ,                                       ! Humidity Indicating Day Schedule Name
  DefaultMultipliers,                     ! Dry-Bulb Temperature Range Modifier Type
  ,                                       ! Dry-Bulb Temperature Range Modifier Schedule Name
  ASHRAEClearSky;                         ! Solar Model Indicator

OS:ComponentData,
  {3be3ea7f-1358-49ca-839a-897e254ec0f8}, ! Handle
  Component Data 1,                       ! Name
  {e932114b-6803-4e6f-8276-368b3fb5525e}, ! UUID
  {7356f1ef-0d80-4b15-8c82-5b83732fe44d}, ! Version UUID
  1366311468,                             ! Creation Timestamp
  1366311468,                             ! Version Timestamp
  {21c64abf-7deb-49a6-906c-fcfa279cb1c0}; ! Name of Object 1

