
OS:Version,
  {b70a5b98-c21c-4a96-a15f-b7b6dd9d3a75}, ! Handle
  0.9.3;                                  ! Version Identifier

OS:SizingPeriod:DesignDay,
  {c58685a5-13d1-4ae2-a571-5ac5d4167002}, ! Handle
  Grand Island Central Ne Regio Ann Clg .4% Condns DB=>MWB, ! Name
  35.7,                                   ! Maximum Dry-Bulb Temperature {C}
  12.2,                                   ! Daily Dry-Bulb Temperature Range {deltaC}
  23.2,                                   ! Humidity Indicating Conditions at Maximum Dry-Bulb {BasedOnField A3}
  94765,                                  ! Barometric Pressure {Pa}
  6.5,                                    ! Wind Speed {m/s}
  180,                                    ! Wind Direction {deg}
  0,                                      ! Sky Clearness
  0,                                      ! Rain Indicator
  0,                                      ! Snow Indicator
  21,                                     ! Day of Month
  7,                                      ! Month
  SummerDesignDay,                        ! Day Type
  0,                                      ! Daylight Saving Time Indicator
  Wetbulb,                                ! Humidity Indicating Type
  ,                                       ! Humidity Indicating Day Schedule Name
  DefaultMultipliers,                     ! Dry-Bulb Temperature Range Modifier Type
  ,                                       ! Dry-Bulb Temperature Range Modifier Schedule Name
  ASHRAETau,                              ! Solar Model Indicator
  ,                                       ! Beam Solar Day Schedule Name
  ,                                       ! Diffuse Solar Day Schedule Name
  0.405,                                  ! ASHRAE Taub {dimensionless}
  2.23;                                   ! ASHRAE Taud {dimensionless}

OS:ComponentData,
  {c1946513-d707-4beb-b150-b044fb66e4b1}, ! Handle
  Component Data 1,                       ! Name
  {6e6cb587-5539-4601-9af1-a33be9e12bd8}, ! UUID
  {3130de16-8679-4161-ab19-ffe0fd83c865}, ! Version UUID
  1366309112,                             ! Creation Timestamp
  1366309112,                             ! Version Timestamp
  {c58685a5-13d1-4ae2-a571-5ac5d4167002}; ! Name of Object 1

