
OS:Version,
  {e82a2217-cfee-48f8-86e9-b26f97257596}, ! Handle
  0.9.3;                                  ! Version Identifier

OS:SizingPeriod:DesignDay,
  {962fe394-12a0-4dcf-af84-2e41cf495216}, ! Handle
  Greensboro Ann Clg .4% Condns WB=>MDB,  ! Name
  30.9,                                   ! Maximum Dry-Bulb Temperature {C}
  9.9,                                    ! Daily Dry-Bulb Temperature Range {deltaC}
  25,                                     ! Humidity Indicating Conditions at Maximum Dry-Bulb {BasedOnField A3}
  98123,                                  ! Barometric Pressure {Pa}
  3.4,                                    ! Wind Speed {m/s}
  230,                                    ! Wind Direction {deg}
  0,                                      ! Sky Clearness
  0,                                      ! Rain Indicator
  0,                                      ! Snow Indicator
  21,                                     ! Day of Month
  7,                                      ! Month
  SummerDesignDay,                        ! Day Type
  0,                                      ! Daylight Saving Time Indicator
  Wetbulb,                                ! Humidity Indicating Type
  ,                                       ! Humidity Indicating Day Schedule Name
  DefaultMultipliers,                     ! Dry-Bulb Temperature Range Modifier Type
  ,                                       ! Dry-Bulb Temperature Range Modifier Schedule Name
  ASHRAETau,                              ! Solar Model Indicator
  ,                                       ! Beam Solar Day Schedule Name
  ,                                       ! Diffuse Solar Day Schedule Name
  0.557,                                  ! ASHRAE Taub {dimensionless}
  1.757;                                  ! ASHRAE Taud {dimensionless}

OS:ComponentData,
  {feb50314-8dd4-42db-9a86-3b8ef15c13bc}, ! Handle
  Component Data 1,                       ! Name
  {2cbb0d05-e333-4278-9aa3-ca65683fa328}, ! UUID
  {20eabee9-574a-4181-bde1-034d6acc01d0}, ! Version UUID
  1366308928,                             ! Creation Timestamp
  1366308928,                             ! Version Timestamp
  {962fe394-12a0-4dcf-af84-2e41cf495216}; ! Name of Object 1

