
OS:Version,
  {3ea4b5e0-8d47-46f4-ad76-1392a27dd5ca}, ! Handle
  0.9.3;                                  ! Version Identifier

OS:SizingPeriod:DesignDay,
  {3f106359-7af0-4c26-88d7-cc131b835c2a}, ! Handle
  Boston Logan IntL Arpt Ann Htg 99% Condns DB, ! Name
  -10.9,                                  ! Maximum Dry-Bulb Temperature {C}
  0,                                      ! Daily Dry-Bulb Temperature Range {deltaC}
  -10.9,                                  ! Humidity Indicating Conditions at Maximum Dry-Bulb {BasedOnField A3}
  101253,                                 ! Barometric Pressure {Pa}
  7.2,                                    ! Wind Speed {m/s}
  320,                                    ! Wind Direction {deg}
  0,                                      ! Sky Clearness
  0,                                      ! Rain Indicator
  0,                                      ! Snow Indicator
  21,                                     ! Day of Month
  1,                                      ! Month
  WinterDesignDay,                        ! Day Type
  0,                                      ! Daylight Saving Time Indicator
  Wetbulb,                                ! Humidity Indicating Type
  ,                                       ! Humidity Indicating Day Schedule Name
  DefaultMultipliers,                     ! Dry-Bulb Temperature Range Modifier Type
  ,                                       ! Dry-Bulb Temperature Range Modifier Schedule Name
  ASHRAEClearSky;                         ! Solar Model Indicator

OS:ComponentData,
  {0eef80d5-2e25-4014-b21d-4ef24b65feb9}, ! Handle
  Component Data 1,                       ! Name
  {288944cf-0309-421f-87d8-9584dc587df8}, ! UUID
  {841b73c7-8501-4e6c-a234-cff7aa72ecc7}, ! Version UUID
  1366307792,                             ! Creation Timestamp
  1366307792,                             ! Version Timestamp
  {3f106359-7af0-4c26-88d7-cc131b835c2a}; ! Name of Object 1

