
OS:Version,
  {d5b75d17-cfb4-477f-adbd-70a3b437cd29}, ! Handle
  0.9.3;                                  ! Version Identifier

OS:SizingPeriod:DesignDay,
  {ec486f4e-057f-4b74-a40a-941093e1ef08}, ! Handle
  GRAND_RAPIDS Ann Htg Wind 99% Condns WS=>MCDB, ! Name
  -3.1,                                   ! Maximum Dry-Bulb Temperature {C}
  0,                                      ! Daily Dry-Bulb Temperature Range {deltaC}
  -3.1,                                   ! Humidity Indicating Conditions at Maximum Dry-Bulb {BasedOnField A3}
  98416,                                  ! Barometric Pressure {Pa}
  11.6,                                   ! Wind Speed {m/s}
  200,                                    ! Wind Direction {deg}
  0,                                      ! Sky Clearness
  0,                                      ! Rain Indicator
  0,                                      ! Snow Indicator
  21,                                     ! Day of Month
  1,                                      ! Month
  WinterDesignDay,                        ! Day Type
  0,                                      ! Daylight Saving Time Indicator
  Wetbulb,                                ! Humidity Indicating Type
  ,                                       ! Humidity Indicating Day Schedule Name
  DefaultMultipliers,                     ! Dry-Bulb Temperature Range Modifier Type
  ,                                       ! Dry-Bulb Temperature Range Modifier Schedule Name
  ASHRAEClearSky;                         ! Solar Model Indicator

OS:ComponentData,
  {0aae7b7e-9998-4279-bb64-7a5040908522}, ! Handle
  Component Data 1,                       ! Name
  {09d7004d-c24c-4de8-bfd2-806eb1a89afa}, ! UUID
  {a413c8e3-17bd-46be-b22e-8d8dc619499b}, ! Version UUID
  1366308017,                             ! Creation Timestamp
  1366308017,                             ! Version Timestamp
  {ec486f4e-057f-4b74-a40a-941093e1ef08}; ! Name of Object 1

