
OS:Version,
  {e727f516-81db-4796-bbe8-881037d62781}, ! Handle
  0.9.3;                                  ! Version Identifier

OS:SizingPeriod:DesignDay,
  {01e0123a-abf7-453e-8509-e893038e51a4}, ! Handle
  Iron Mountain Ford Ann Hum_n 99.6% Condns DP=>MCDB, ! Name
  -22.8,                                  ! Maximum Dry-Bulb Temperature {C}
  0,                                      ! Daily Dry-Bulb Temperature Range {deltaC}
  -27.9,                                  ! Humidity Indicating Conditions at Maximum Dry-Bulb {BasedOnField A3}
  97074,                                  ! Barometric Pressure {Pa}
  1.8,                                    ! Wind Speed {m/s}
  270,                                    ! Wind Direction {deg}
  0,                                      ! Sky Clearness
  0,                                      ! Rain Indicator
  0,                                      ! Snow Indicator
  21,                                     ! Day of Month
  1,                                      ! Month
  WinterDesignDay,                        ! Day Type
  0,                                      ! Daylight Saving Time Indicator
  Dewpoint,                               ! Humidity Indicating Type
  ,                                       ! Humidity Indicating Day Schedule Name
  DefaultMultipliers,                     ! Dry-Bulb Temperature Range Modifier Type
  ,                                       ! Dry-Bulb Temperature Range Modifier Schedule Name
  ASHRAEClearSky;                         ! Solar Model Indicator

OS:ComponentData,
  {ac43d18f-fb4c-450a-b10d-e5188948bc0c}, ! Handle
  Component Data 1,                       ! Name
  {33211b40-119c-4357-a0bc-6cef26a1b6f1}, ! UUID
  {58a64de4-640f-4590-ac3c-bf6762a2c2a2}, ! Version UUID
  1366308037,                             ! Creation Timestamp
  1366308037,                             ! Version Timestamp
  {01e0123a-abf7-453e-8509-e893038e51a4}; ! Name of Object 1

