
OS:Version,
  {db3346b6-ea72-428b-a83c-b75f9e8eb228}, ! Handle
  0.9.3;                                  ! Version Identifier

OS:SizingPeriod:DesignDay,
  {ef271c72-c0fe-4821-9ce1-ec4a3e23dae2}, ! Handle
  Lawton Municipal Ann Hum_n 99.6% Condns DP=>MCDB, ! Name
  -5.5,                                   ! Maximum Dry-Bulb Temperature {C}
  0,                                      ! Daily Dry-Bulb Temperature Range {deltaC}
  -13.9,                                  ! Humidity Indicating Conditions at Maximum Dry-Bulb {BasedOnField A3}
  97330,                                  ! Barometric Pressure {Pa}
  4,                                      ! Wind Speed {m/s}
  0,                                      ! Wind Direction {deg}
  0,                                      ! Sky Clearness
  0,                                      ! Rain Indicator
  0,                                      ! Snow Indicator
  21,                                     ! Day of Month
  1,                                      ! Month
  WinterDesignDay,                        ! Day Type
  0,                                      ! Daylight Saving Time Indicator
  Dewpoint,                               ! Humidity Indicating Type
  ,                                       ! Humidity Indicating Day Schedule Name
  DefaultMultipliers,                     ! Dry-Bulb Temperature Range Modifier Type
  ,                                       ! Dry-Bulb Temperature Range Modifier Schedule Name
  ASHRAEClearSky;                         ! Solar Model Indicator

OS:ComponentData,
  {dcd1dc3a-14ef-46e6-9f66-9133645307a9}, ! Handle
  Component Data 1,                       ! Name
  {9c4e41e6-153c-4d72-afce-63a247e9e155}, ! UUID
  {0d42710f-41b8-4728-a6b1-0518a6e7f212}, ! Version UUID
  1366309902,                             ! Creation Timestamp
  1366309902,                             ! Version Timestamp
  {ef271c72-c0fe-4821-9ce1-ec4a3e23dae2}; ! Name of Object 1

