
OS:Version,
  {ccd423e0-7d68-455b-91b5-f5f97335ec8a}, ! Handle
  0.9.3;                                  ! Version Identifier

OS:SizingPeriod:DesignDay,
  {fba53b1e-358d-47c2-8bc4-e0dcd333b5c4}, ! Handle
  BIRMINGHAM Ann Clg 1% Condns DP=>MDB,   ! Name
  27.7,                                   ! Maximum Dry-Bulb Temperature {C}
  10.3,                                   ! Daily Dry-Bulb Temperature Range {deltaC}
  23.8,                                   ! Humidity Indicating Conditions at Maximum Dry-Bulb {BasedOnField A3}
  99040,                                  ! Barometric Pressure {Pa}
  3.5,                                    ! Wind Speed {m/s}
  330,                                    ! Wind Direction {deg}
  0,                                      ! Sky Clearness
  0,                                      ! Rain Indicator
  0,                                      ! Snow Indicator
  21,                                     ! Day of Month
  7,                                      ! Month
  SummerDesignDay,                        ! Day Type
  0,                                      ! Daylight Saving Time Indicator
  Dewpoint,                               ! Humidity Indicating Type
  ,                                       ! Humidity Indicating Day Schedule Name
  DefaultMultipliers,                     ! Dry-Bulb Temperature Range Modifier Type
  ,                                       ! Dry-Bulb Temperature Range Modifier Schedule Name
  ASHRAETau,                              ! Solar Model Indicator
  ,                                       ! Beam Solar Day Schedule Name
  ,                                       ! Diffuse Solar Day Schedule Name
  0.583,                                  ! ASHRAE Taub {dimensionless}
  1.723;                                  ! ASHRAE Taud {dimensionless}

OS:ComponentData,
  {7d8a6d51-f62b-48a8-ad4b-dd1d8cd01f23}, ! Handle
  Component Data 1,                       ! Name
  {6a454014-db90-4e6c-82df-139908bc0c67}, ! UUID
  {d6b91ec7-af42-46fa-977b-05c177fcf895}, ! Version UUID
  1366305641,                             ! Creation Timestamp
  1366305641,                             ! Version Timestamp
  {fba53b1e-358d-47c2-8bc4-e0dcd333b5c4}; ! Name of Object 1

