
OS:Version,
  {61fefa5e-a77b-447e-af6f-3ccb41069c97}, ! Handle
  0.9.3;                                  ! Version Identifier

OS:SizingPeriod:DesignDay,
  {9e0a953f-8b88-4f77-b8e0-3a54c940d13a}, ! Handle
  Billings Logan IntL Arpt Ann Hum_n 99.6% Condns DP=>MCDB, ! Name
  -23.8,                                  ! Maximum Dry-Bulb Temperature {C}
  0,                                      ! Daily Dry-Bulb Temperature Range {deltaC}
  -28.3,                                  ! Humidity Indicating Conditions at Maximum Dry-Bulb {BasedOnField A3}
  88930,                                  ! Barometric Pressure {Pa}
  3.9,                                    ! Wind Speed {m/s}
  20,                                     ! Wind Direction {deg}
  0,                                      ! Sky Clearness
  0,                                      ! Rain Indicator
  0,                                      ! Snow Indicator
  21,                                     ! Day of Month
  1,                                      ! Month
  WinterDesignDay,                        ! Day Type
  0,                                      ! Daylight Saving Time Indicator
  Dewpoint,                               ! Humidity Indicating Type
  ,                                       ! Humidity Indicating Day Schedule Name
  DefaultMultipliers,                     ! Dry-Bulb Temperature Range Modifier Type
  ,                                       ! Dry-Bulb Temperature Range Modifier Schedule Name
  ASHRAEClearSky;                         ! Solar Model Indicator

OS:ComponentData,
  {2c7afee1-d16a-4e9a-94c9-d841fbff49f9}, ! Handle
  Component Data 1,                       ! Name
  {2281da7e-89c0-4b7e-a50f-521d827da591}, ! UUID
  {0d5066be-a6f3-442a-a34c-6db0cdbda1ea}, ! Version UUID
  1366308704,                             ! Creation Timestamp
  1366308704,                             ! Version Timestamp
  {9e0a953f-8b88-4f77-b8e0-3a54c940d13a}; ! Name of Object 1

