
OS:Version,
  {3f5754e3-2c27-44b6-a3a8-325467167734}, ! Handle
  0.9.3;                                  ! Version Identifier

OS:SizingPeriod:DesignDay,
  {06f2ebf7-debb-480f-9893-56798371e4a0}, ! Handle
  Hattiesburg Laurel Ann Clg 1% Condns DP=>MDB, ! Name
  28.1,                                   ! Maximum Dry-Bulb Temperature {C}
  10.9,                                   ! Daily Dry-Bulb Temperature Range {deltaC}
  23.7,                                   ! Humidity Indicating Conditions at Maximum Dry-Bulb {BasedOnField A3}
  100213,                                 ! Barometric Pressure {Pa}
  2.1,                                    ! Wind Speed {m/s}
  330,                                    ! Wind Direction {deg}
  0,                                      ! Sky Clearness
  0,                                      ! Rain Indicator
  0,                                      ! Snow Indicator
  21,                                     ! Day of Month
  7,                                      ! Month
  SummerDesignDay,                        ! Day Type
  0,                                      ! Daylight Saving Time Indicator
  Dewpoint,                               ! Humidity Indicating Type
  ,                                       ! Humidity Indicating Day Schedule Name
  DefaultMultipliers,                     ! Dry-Bulb Temperature Range Modifier Type
  ,                                       ! Dry-Bulb Temperature Range Modifier Schedule Name
  ASHRAETau,                              ! Solar Model Indicator
  ,                                       ! Beam Solar Day Schedule Name
  ,                                       ! Diffuse Solar Day Schedule Name
  0.55,                                   ! ASHRAE Taub {dimensionless}
  1.826;                                  ! ASHRAE Taud {dimensionless}

OS:ComponentData,
  {6e4399a4-c1d7-4c54-9d74-2622a4b5c9fb}, ! Handle
  Component Data 1,                       ! Name
  {566c58a6-75ee-40d6-bbfe-d1215c34b31d}, ! UUID
  {7b3b3478-cd97-4dfd-b976-927ab0944b54}, ! Version UUID
  1366308635,                             ! Creation Timestamp
  1366308635,                             ! Version Timestamp
  {06f2ebf7-debb-480f-9893-56798371e4a0}; ! Name of Object 1

