
OS:Version,
  {1ba98a5f-1321-4660-b040-5a80d442724d}, ! Handle
  0.9.3;                                  ! Version Identifier

OS:SizingPeriod:DesignDay,
  {7380a7ab-e672-42cc-9594-3b5d5e0925c6}, ! Handle
  LEXINGTON Ann Clg 2% Condns WB=>MDB,    ! Name
  28.6,                                   ! Maximum Dry-Bulb Temperature {C}
  10.2,                                   ! Daily Dry-Bulb Temperature Range {deltaC}
  23.9,                                   ! Humidity Indicating Conditions at Maximum Dry-Bulb {BasedOnField A3}
  97761,                                  ! Barometric Pressure {Pa}
  3.7,                                    ! Wind Speed {m/s}
  250,                                    ! Wind Direction {deg}
  0,                                      ! Sky Clearness
  0,                                      ! Rain Indicator
  0,                                      ! Snow Indicator
  21,                                     ! Day of Month
  7,                                      ! Month
  SummerDesignDay,                        ! Day Type
  0,                                      ! Daylight Saving Time Indicator
  Wetbulb,                                ! Humidity Indicating Type
  ,                                       ! Humidity Indicating Day Schedule Name
  DefaultMultipliers,                     ! Dry-Bulb Temperature Range Modifier Type
  ,                                       ! Dry-Bulb Temperature Range Modifier Schedule Name
  ASHRAETau,                              ! Solar Model Indicator
  ,                                       ! Beam Solar Day Schedule Name
  ,                                       ! Diffuse Solar Day Schedule Name
  0.503,                                  ! ASHRAE Taub {dimensionless}
  1.885;                                  ! ASHRAE Taud {dimensionless}

OS:ComponentData,
  {e688b32d-e946-4c4a-b13e-d887805b5299}, ! Handle
  Component Data 1,                       ! Name
  {bf6d21d6-6781-46b2-b450-3f50da07030e}, ! UUID
  {78476628-6031-44bf-82d3-26327867504b}, ! Version UUID
  1366307656,                             ! Creation Timestamp
  1366307656,                             ! Version Timestamp
  {7380a7ab-e672-42cc-9594-3b5d5e0925c6}; ! Name of Object 1

