
OS:Version,
  {19cf574d-45b1-4b07-bb4d-37fee6420bfc}, ! Handle
  0.9.3;                                  ! Version Identifier

OS:SizingPeriod:DesignDay,
  {acfa881e-d669-4202-a1ac-18c14c9e0769}, ! Handle
  Annette Ann Clg 2% Condns DB=>MWB,      ! Name
  18.7,                                   ! Maximum Dry-Bulb Temperature {C}
  5.2,                                    ! Daily Dry-Bulb Temperature Range {deltaC}
  14,                                     ! Humidity Indicating Conditions at Maximum Dry-Bulb {BasedOnField A3}
  100917,                                 ! Barometric Pressure {Pa}
  3.4,                                    ! Wind Speed {m/s}
  300,                                    ! Wind Direction {deg}
  0,                                      ! Sky Clearness
  0,                                      ! Rain Indicator
  0,                                      ! Snow Indicator
  21,                                     ! Day of Month
  8,                                      ! Month
  SummerDesignDay,                        ! Day Type
  0,                                      ! Daylight Saving Time Indicator
  Wetbulb,                                ! Humidity Indicating Type
  ,                                       ! Humidity Indicating Day Schedule Name
  DefaultMultipliers,                     ! Dry-Bulb Temperature Range Modifier Type
  ,                                       ! Dry-Bulb Temperature Range Modifier Schedule Name
  ASHRAETau,                              ! Solar Model Indicator
  ,                                       ! Beam Solar Day Schedule Name
  ,                                       ! Diffuse Solar Day Schedule Name
  0.369,                                  ! ASHRAE Taub {dimensionless}
  2.372;                                  ! ASHRAE Taud {dimensionless}

