
OS:Version,
  {12f40b99-4d8c-47f4-8c67-e841d997f38e}, ! Handle
  0.9.3;                                  ! Version Identifier

OS:SizingPeriod:DesignDay,
  {2ffcdc3c-fc9e-426f-8e91-a5a4e6be4630}, ! Handle
  Helena Ann Clg 1% Condns Enth=>MDB,     ! Name
  28.3,                                   ! Maximum Dry-Bulb Temperature {C}
  16.1,                                   ! Daily Dry-Bulb Temperature Range {deltaC}
  52400,                                  ! Humidity Indicating Conditions at Maximum Dry-Bulb {BasedOnField A3}
  87844,                                  ! Barometric Pressure {Pa}
  4.9,                                    ! Wind Speed {m/s}
  290,                                    ! Wind Direction {deg}
  0,                                      ! Sky Clearness
  0,                                      ! Rain Indicator
  0,                                      ! Snow Indicator
  21,                                     ! Day of Month
  7,                                      ! Month
  SummerDesignDay,                        ! Day Type
  0,                                      ! Daylight Saving Time Indicator
  Enthalpy,                               ! Humidity Indicating Type
  ,                                       ! Humidity Indicating Day Schedule Name
  DefaultMultipliers,                     ! Dry-Bulb Temperature Range Modifier Type
  ,                                       ! Dry-Bulb Temperature Range Modifier Schedule Name
  ASHRAETau,                              ! Solar Model Indicator
  ,                                       ! Beam Solar Day Schedule Name
  ,                                       ! Diffuse Solar Day Schedule Name
  0.38,                                   ! ASHRAE Taub {dimensionless}
  2.232;                                  ! ASHRAE Taud {dimensionless}

OS:ComponentData,
  {c28e4c54-52f3-4949-b245-8e9c2562aa61}, ! Handle
  Component Data 1,                       ! Name
  {4f92a3d5-e3cb-4956-9f3d-c14e03ca4142}, ! UUID
  {0564e8e6-06da-465e-be75-a84bde720038}, ! Version UUID
  1366308794,                             ! Creation Timestamp
  1366308794,                             ! Version Timestamp
  {2ffcdc3c-fc9e-426f-8e91-a5a4e6be4630}; ! Name of Object 1

