
OS:Version,
  {76c6a630-1414-47f8-b200-8a7350b894f7}, ! Handle
  0.9.3;                                  ! Version Identifier

OS:SizingPeriod:DesignDay,
  {d8aefa6a-631b-4f26-b791-4a5614da5bb8}, ! Handle
  Aitkin Ndb Awos Ann Hum_n 99.6% Condns DP=>MCDB, ! Name
  -28.7,                                  ! Maximum Dry-Bulb Temperature {C}
  0,                                      ! Daily Dry-Bulb Temperature Range {deltaC}
  -34.5,                                  ! Humidity Indicating Conditions at Maximum Dry-Bulb {BasedOnField A3}
  96993,                                  ! Barometric Pressure {Pa}
  0.8,                                    ! Wind Speed {m/s}
  300,                                    ! Wind Direction {deg}
  0,                                      ! Sky Clearness
  0,                                      ! Rain Indicator
  0,                                      ! Snow Indicator
  21,                                     ! Day of Month
  1,                                      ! Month
  WinterDesignDay,                        ! Day Type
  0,                                      ! Daylight Saving Time Indicator
  Dewpoint,                               ! Humidity Indicating Type
  ,                                       ! Humidity Indicating Day Schedule Name
  DefaultMultipliers,                     ! Dry-Bulb Temperature Range Modifier Type
  ,                                       ! Dry-Bulb Temperature Range Modifier Schedule Name
  ASHRAEClearSky;                         ! Solar Model Indicator

OS:ComponentData,
  {97c80794-37e0-4e91-a760-85dd2a1c4a01}, ! Handle
  Component Data 1,                       ! Name
  {6901349d-a653-454b-a07f-59669eded307}, ! UUID
  {0db5060c-f673-4cab-aa81-29d66b19172f}, ! Version UUID
  1366308135,                             ! Creation Timestamp
  1366308135,                             ! Version Timestamp
  {d8aefa6a-631b-4f26-b791-4a5614da5bb8}; ! Name of Object 1

