
OS:Version,
  {484ec61e-8ab3-4c0e-86ba-5b7fba8eac77}, ! Handle
  0.9.3;                                  ! Version Identifier

OS:SizingPeriod:DesignDay,
  {1d92148c-9be4-4122-ad57-ff4a05e87547}, ! Handle
  Cahokia St  Louis Ann Clg .4% Condns DB=>MWB, ! Name
  34.2,                                   ! Maximum Dry-Bulb Temperature {C}
  11,                                     ! Daily Dry-Bulb Temperature Range {deltaC}
  25.2,                                   ! Humidity Indicating Conditions at Maximum Dry-Bulb {BasedOnField A3}
  99820,                                  ! Barometric Pressure {Pa}
  3.5,                                    ! Wind Speed {m/s}
  200,                                    ! Wind Direction {deg}
  0,                                      ! Sky Clearness
  0,                                      ! Rain Indicator
  0,                                      ! Snow Indicator
  21,                                     ! Day of Month
  7,                                      ! Month
  SummerDesignDay,                        ! Day Type
  0,                                      ! Daylight Saving Time Indicator
  Wetbulb,                                ! Humidity Indicating Type
  ,                                       ! Humidity Indicating Day Schedule Name
  DefaultMultipliers,                     ! Dry-Bulb Temperature Range Modifier Type
  ,                                       ! Dry-Bulb Temperature Range Modifier Schedule Name
  ASHRAETau,                              ! Solar Model Indicator
  ,                                       ! Beam Solar Day Schedule Name
  ,                                       ! Diffuse Solar Day Schedule Name
  0.481,                                  ! ASHRAE Taub {dimensionless}
  1.975;                                  ! ASHRAE Taud {dimensionless}

OS:ComponentData,
  {6909cb5d-c75c-454b-ae54-f5ee4587fc1e}, ! Handle
  Component Data 1,                       ! Name
  {3cb96e27-a4b0-4de9-bd16-88ae3785c85b}, ! UUID
  {4360a5bf-e679-472e-b2e5-3de4dd5f571d}, ! Version UUID
  1366307327,                             ! Creation Timestamp
  1366307327,                             ! Version Timestamp
  {1d92148c-9be4-4122-ad57-ff4a05e87547}; ! Name of Object 1

