
OS:Version,
  {4a13e910-1ffb-4047-bd21-352bed5cebc0}, ! Handle
  0.9.3;                                  ! Version Identifier

OS:SizingPeriod:DesignDay,
  {e54c600d-d064-4853-b8b5-fe4a864005ee}, ! Handle
  GOODLAND Ann Clg 2% Condns DB=>MWB,     ! Name
  33.1,                                   ! Maximum Dry-Bulb Temperature {C}
  15,                                     ! Daily Dry-Bulb Temperature Range {deltaC}
  19,                                     ! Humidity Indicating Conditions at Maximum Dry-Bulb {BasedOnField A3}
  88531,                                  ! Barometric Pressure {Pa}
  6,                                      ! Wind Speed {m/s}
  160,                                    ! Wind Direction {deg}
  0,                                      ! Sky Clearness
  0,                                      ! Rain Indicator
  0,                                      ! Snow Indicator
  21,                                     ! Day of Month
  7,                                      ! Month
  SummerDesignDay,                        ! Day Type
  0,                                      ! Daylight Saving Time Indicator
  Wetbulb,                                ! Humidity Indicating Type
  ,                                       ! Humidity Indicating Day Schedule Name
  DefaultMultipliers,                     ! Dry-Bulb Temperature Range Modifier Type
  ,                                       ! Dry-Bulb Temperature Range Modifier Schedule Name
  ASHRAETau,                              ! Solar Model Indicator
  ,                                       ! Beam Solar Day Schedule Name
  ,                                       ! Diffuse Solar Day Schedule Name
  0.421,                                  ! ASHRAE Taub {dimensionless}
  2.065;                                  ! ASHRAE Taud {dimensionless}

OS:ComponentData,
  {baa6d52d-0f83-43f3-a04e-5a0f99102304}, ! Handle
  Component Data 1,                       ! Name
  {40dfc803-143e-4584-9830-1006e6390898}, ! UUID
  {8383f802-87ce-4a80-9dfd-20bb9073064d}, ! Version UUID
  1366307538,                             ! Creation Timestamp
  1366307538,                             ! Version Timestamp
  {e54c600d-d064-4853-b8b5-fe4a864005ee}; ! Name of Object 1

