
OS:Version,
  {58b988fe-8d24-49a0-9bc6-40272f56c003}, ! Handle
  0.9.3;                                  ! Version Identifier

OS:SizingPeriod:DesignDay,
  {2838fb07-4b9f-4601-8d94-75204a6f294c}, ! Handle
  Fort Campbell Aaf Ann Htg Wind 99.6% Condns WS=>MCDB, ! Name
  7,                                      ! Maximum Dry-Bulb Temperature {C}
  0,                                      ! Daily Dry-Bulb Temperature Range {deltaC}
  7,                                      ! Humidity Indicating Conditions at Maximum Dry-Bulb {BasedOnField A3}
  99264,                                  ! Barometric Pressure {Pa}
  10.3,                                   ! Wind Speed {m/s}
  330,                                    ! Wind Direction {deg}
  0,                                      ! Sky Clearness
  0,                                      ! Rain Indicator
  0,                                      ! Snow Indicator
  21,                                     ! Day of Month
  1,                                      ! Month
  WinterDesignDay,                        ! Day Type
  0,                                      ! Daylight Saving Time Indicator
  Wetbulb,                                ! Humidity Indicating Type
  ,                                       ! Humidity Indicating Day Schedule Name
  DefaultMultipliers,                     ! Dry-Bulb Temperature Range Modifier Type
  ,                                       ! Dry-Bulb Temperature Range Modifier Schedule Name
  ASHRAEClearSky;                         ! Solar Model Indicator

