
OS:Version,
  {aed702f0-9dbd-428f-bd75-a11ceeb5d61a}, ! Handle
  0.9.3;                                  ! Version Identifier

OS:SizingPeriod:DesignDay,
  {614bce45-d164-4ab0-9005-88da2dffc7b0}, ! Handle
  Augusta Bush Field Ann Clg 1% Condns Enth=>MDB, ! Name
  31.9,                                   ! Maximum Dry-Bulb Temperature {C}
  11.7,                                   ! Daily Dry-Bulb Temperature Range {deltaC}
  79200,                                  ! Humidity Indicating Conditions at Maximum Dry-Bulb {BasedOnField A3}
  100845,                                 ! Barometric Pressure {Pa}
  3.8,                                    ! Wind Speed {m/s}
  240,                                    ! Wind Direction {deg}
  0,                                      ! Sky Clearness
  0,                                      ! Rain Indicator
  0,                                      ! Snow Indicator
  21,                                     ! Day of Month
  7,                                      ! Month
  SummerDesignDay,                        ! Day Type
  0,                                      ! Daylight Saving Time Indicator
  Enthalpy,                               ! Humidity Indicating Type
  ,                                       ! Humidity Indicating Day Schedule Name
  DefaultMultipliers,                     ! Dry-Bulb Temperature Range Modifier Type
  ,                                       ! Dry-Bulb Temperature Range Modifier Schedule Name
  ASHRAETau,                              ! Solar Model Indicator
  ,                                       ! Beam Solar Day Schedule Name
  ,                                       ! Diffuse Solar Day Schedule Name
  0.559,                                  ! ASHRAE Taub {dimensionless}
  1.788;                                  ! ASHRAE Taud {dimensionless}

OS:ComponentData,
  {cf876f41-cce3-4d5e-8a93-114640f207fe}, ! Handle
  Component Data 1,                       ! Name
  {dcb19b0e-d68c-427b-a538-e7e2ee51e4d3}, ! UUID
  {5edc164a-523c-4d6d-8733-fe6f0ce6d9ab}, ! Version UUID
  1366306989,                             ! Creation Timestamp
  1366306989,                             ! Version Timestamp
  {614bce45-d164-4ab0-9005-88da2dffc7b0}; ! Name of Object 1

