
OS:Version,
  {dffd801c-2c3c-442d-82f6-eb1e9bae5f68}, ! Handle
  0.9.3;                                  ! Version Identifier

OS:SizingPeriod:DesignDay,
  {9fe24405-e584-40ba-b699-c77f8cef4fd6}, ! Handle
  Columbia Metro Arpt Ann Clg 2% Condns Enth=>MDB, ! Name
  30.7,                                   ! Maximum Dry-Bulb Temperature {C}
  11.1,                                   ! Daily Dry-Bulb Temperature Range {deltaC}
  75600,                                  ! Humidity Indicating Conditions at Maximum Dry-Bulb {BasedOnField A3}
  100547,                                 ! Barometric Pressure {Pa}
  3.9,                                    ! Wind Speed {m/s}
  240,                                    ! Wind Direction {deg}
  0,                                      ! Sky Clearness
  0,                                      ! Rain Indicator
  0,                                      ! Snow Indicator
  21,                                     ! Day of Month
  7,                                      ! Month
  SummerDesignDay,                        ! Day Type
  0,                                      ! Daylight Saving Time Indicator
  Enthalpy,                               ! Humidity Indicating Type
  ,                                       ! Humidity Indicating Day Schedule Name
  DefaultMultipliers,                     ! Dry-Bulb Temperature Range Modifier Type
  ,                                       ! Dry-Bulb Temperature Range Modifier Schedule Name
  ASHRAETau,                              ! Solar Model Indicator
  ,                                       ! Beam Solar Day Schedule Name
  ,                                       ! Diffuse Solar Day Schedule Name
  0.566,                                  ! ASHRAE Taub {dimensionless}
  1.764;                                  ! ASHRAE Taud {dimensionless}

OS:ComponentData,
  {23a6deef-36bd-4268-9ca6-ebe557987baa}, ! Handle
  Component Data 1,                       ! Name
  {a33cf875-2a30-472a-809a-93698d2e5646}, ! UUID
  {0bcbb479-2f48-4a57-a188-d65ba1904b0f}, ! Version UUID
  1366310349,                             ! Creation Timestamp
  1366310349,                             ! Version Timestamp
  {9fe24405-e584-40ba-b699-c77f8cef4fd6}; ! Name of Object 1

