
OS:Version,
  {6279d902-780d-47fa-9a0a-e3da9cb1ddc0}, ! Handle
  0.9.3;                                  ! Version Identifier

OS:SizingPeriod:DesignDay,
  {1799489a-772e-4228-bd08-7dd8f056112e}, ! Handle
  Barstow/Daggett Ann Clg 2% Condns WB=>MDB, ! Name
  36.2,                                   ! Maximum Dry-Bulb Temperature {C}
  16.6,                                   ! Daily Dry-Bulb Temperature Range {deltaC}
  21.2,                                   ! Humidity Indicating Conditions at Maximum Dry-Bulb {BasedOnField A3}
  94469,                                  ! Barometric Pressure {Pa}
  4.8,                                    ! Wind Speed {m/s}
  290,                                    ! Wind Direction {deg}
  0,                                      ! Sky Clearness
  0,                                      ! Rain Indicator
  0,                                      ! Snow Indicator
  21,                                     ! Day of Month
  7,                                      ! Month
  SummerDesignDay,                        ! Day Type
  0,                                      ! Daylight Saving Time Indicator
  Wetbulb,                                ! Humidity Indicating Type
  ,                                       ! Humidity Indicating Day Schedule Name
  DefaultMultipliers,                     ! Dry-Bulb Temperature Range Modifier Type
  ,                                       ! Dry-Bulb Temperature Range Modifier Schedule Name
  ASHRAETau,                              ! Solar Model Indicator
  ,                                       ! Beam Solar Day Schedule Name
  ,                                       ! Diffuse Solar Day Schedule Name
  0.497,                                  ! ASHRAE Taub {dimensionless}
  1.821;                                  ! ASHRAE Taud {dimensionless}

OS:ComponentData,
  {efe43d16-4847-4f06-8d55-4839fc165062}, ! Handle
  Component Data 1,                       ! Name
  {9f4e9a4d-8573-4073-ba10-e1299752d9b0}, ! UUID
  {7fc96ed1-1cf7-4f3a-a708-619d07287c50}, ! Version UUID
  1366306374,                             ! Creation Timestamp
  1366306374,                             ! Version Timestamp
  {1799489a-772e-4228-bd08-7dd8f056112e}; ! Name of Object 1

