
OS:Version,
  {458ff585-a01c-4350-a3f3-4e8c1b8c0379}, ! Handle
  0.9.3;                                  ! Version Identifier

OS:SizingPeriod:DesignDay,
  {80ed4f4b-bac8-48d3-824d-697672253064}, ! Handle
  Brewster Field Arpt Ann Clg .4% Condns Enth=>MDB, ! Name
  31.3,                                   ! Maximum Dry-Bulb Temperature {C}
  12.5,                                   ! Daily Dry-Bulb Temperature Range {deltaC}
  78800,                                  ! Humidity Indicating Conditions at Maximum Dry-Bulb {BasedOnField A3}
  93149,                                  ! Barometric Pressure {Pa}
  5.5,                                    ! Wind Speed {m/s}
  180,                                    ! Wind Direction {deg}
  0,                                      ! Sky Clearness
  0,                                      ! Rain Indicator
  0,                                      ! Snow Indicator
  21,                                     ! Day of Month
  7,                                      ! Month
  SummerDesignDay,                        ! Day Type
  0,                                      ! Daylight Saving Time Indicator
  Enthalpy,                               ! Humidity Indicating Type
  ,                                       ! Humidity Indicating Day Schedule Name
  DefaultMultipliers,                     ! Dry-Bulb Temperature Range Modifier Type
  ,                                       ! Dry-Bulb Temperature Range Modifier Schedule Name
  ASHRAETau,                              ! Solar Model Indicator
  ,                                       ! Beam Solar Day Schedule Name
  ,                                       ! Diffuse Solar Day Schedule Name
  0.401,                                  ! ASHRAE Taub {dimensionless}
  2.224;                                  ! ASHRAE Taud {dimensionless}

OS:ComponentData,
  {d1399525-9ad2-4606-bfa9-1c652a031601}, ! Handle
  Component Data 1,                       ! Name
  {66601331-3f7d-4d1a-a9ee-2ef02c304931}, ! UUID
  {d239dc04-55d8-481f-a9f6-7faea8e9271d}, ! Version UUID
  1366309131,                             ! Creation Timestamp
  1366309131,                             ! Version Timestamp
  {80ed4f4b-bac8-48d3-824d-697672253064}; ! Name of Object 1

