
OS:Version,
  {9da5ce36-bbb4-4f07-9373-1e3ca4948669}, ! Handle
  0.9.3;                                  ! Version Identifier

OS:SizingPeriod:DesignDay,
  {525bc279-81c0-4a49-b572-29671502a376}, ! Handle
  Lompoc  Awos Ann Clg 2% Condns WB=>MDB, ! Name
  21.9,                                   ! Maximum Dry-Bulb Temperature {C}
  8.9,                                    ! Daily Dry-Bulb Temperature Range {deltaC}
  17,                                     ! Humidity Indicating Conditions at Maximum Dry-Bulb {BasedOnField A3}
  101001,                                 ! Barometric Pressure {Pa}
  4.8,                                    ! Wind Speed {m/s}
  270,                                    ! Wind Direction {deg}
  0,                                      ! Sky Clearness
  0,                                      ! Rain Indicator
  0,                                      ! Snow Indicator
  21,                                     ! Day of Month
  8,                                      ! Month
  SummerDesignDay,                        ! Day Type
  0,                                      ! Daylight Saving Time Indicator
  Wetbulb,                                ! Humidity Indicating Type
  ,                                       ! Humidity Indicating Day Schedule Name
  DefaultMultipliers,                     ! Dry-Bulb Temperature Range Modifier Type
  ,                                       ! Dry-Bulb Temperature Range Modifier Schedule Name
  ASHRAETau,                              ! Solar Model Indicator
  ,                                       ! Beam Solar Day Schedule Name
  ,                                       ! Diffuse Solar Day Schedule Name
  0.369,                                  ! ASHRAE Taub {dimensionless}
  2.427;                                  ! ASHRAE Taud {dimensionless}

OS:ComponentData,
  {04a6241d-55cc-4053-b36a-f824402ae527}, ! Handle
  Component Data 1,                       ! Name
  {892273c6-65f8-49ac-9377-46c06e098dc5}, ! UUID
  {e8a9dc49-5fad-4411-a228-7de167c955e7}, ! Version UUID
  1366306466,                             ! Creation Timestamp
  1366306466,                             ! Version Timestamp
  {525bc279-81c0-4a49-b572-29671502a376}; ! Name of Object 1

