
OS:Version,
  {fdd0ef34-13d6-4c7b-b8f6-48a88ef91a1e}, ! Handle
  0.9.3;                                  ! Version Identifier

OS:SizingPeriod:DesignDay,
  {c8278532-a5f0-4a54-9d6b-fd53b10e84dc}, ! Handle
  ELKINS Ann Htg 99% Condns DB,           ! Name
  -14,                                    ! Maximum Dry-Bulb Temperature {C}
  0,                                      ! Daily Dry-Bulb Temperature Range {deltaC}
  -14,                                    ! Humidity Indicating Conditions at Maximum Dry-Bulb {BasedOnField A3}
  94390,                                  ! Barometric Pressure {Pa}
  1.3,                                    ! Wind Speed {m/s}
  260,                                    ! Wind Direction {deg}
  0,                                      ! Sky Clearness
  0,                                      ! Rain Indicator
  0,                                      ! Snow Indicator
  21,                                     ! Day of Month
  1,                                      ! Month
  WinterDesignDay,                        ! Day Type
  0,                                      ! Daylight Saving Time Indicator
  Wetbulb,                                ! Humidity Indicating Type
  ,                                       ! Humidity Indicating Day Schedule Name
  DefaultMultipliers,                     ! Dry-Bulb Temperature Range Modifier Type
  ,                                       ! Dry-Bulb Temperature Range Modifier Schedule Name
  ASHRAEClearSky;                         ! Solar Model Indicator

OS:ComponentData,
  {bae2ad62-7ace-437c-81ef-562449ff9b5c}, ! Handle
  Component Data 1,                       ! Name
  {160074f7-671f-46bb-b1e7-7d4d63232985}, ! UUID
  {ffe62221-add5-48ea-a0bc-f1ceb6c353b0}, ! Version UUID
  1366311645,                             ! Creation Timestamp
  1366311645,                             ! Version Timestamp
  {c8278532-a5f0-4a54-9d6b-fd53b10e84dc}; ! Name of Object 1

