
OS:Version,
  {d84f4109-f742-4719-8a2d-31739a0c0498}, ! Handle
  0.9.3;                                  ! Version Identifier

OS:SizingPeriod:DesignDay,
  {86428ea9-b318-4566-8119-3c344d34f494}, ! Handle
  HOUGHTON Ann Clg 1% Condns Enth=>MDB,   ! Name
  25.8,                                   ! Maximum Dry-Bulb Temperature {C}
  10.5,                                   ! Daily Dry-Bulb Temperature Range {deltaC}
  63500,                                  ! Humidity Indicating Conditions at Maximum Dry-Bulb {BasedOnField A3}
  97435,                                  ! Barometric Pressure {Pa}
  4.7,                                    ! Wind Speed {m/s}
  270,                                    ! Wind Direction {deg}
  0,                                      ! Sky Clearness
  0,                                      ! Rain Indicator
  0,                                      ! Snow Indicator
  21,                                     ! Day of Month
  7,                                      ! Month
  SummerDesignDay,                        ! Day Type
  0,                                      ! Daylight Saving Time Indicator
  Enthalpy,                               ! Humidity Indicating Type
  ,                                       ! Humidity Indicating Day Schedule Name
  DefaultMultipliers,                     ! Dry-Bulb Temperature Range Modifier Type
  ,                                       ! Dry-Bulb Temperature Range Modifier Schedule Name
  ASHRAETau,                              ! Solar Model Indicator
  ,                                       ! Beam Solar Day Schedule Name
  ,                                       ! Diffuse Solar Day Schedule Name
  0.413,                                  ! ASHRAE Taub {dimensionless}
  2.179;                                  ! ASHRAE Taud {dimensionless}

OS:ComponentData,
  {6a58e494-3c33-4ad0-893d-346ee4d6855f}, ! Handle
  Component Data 1,                       ! Name
  {ead4e394-d740-4a32-824a-bc7e8860e35b}, ! UUID
  {420fd476-a99d-4dbc-9d10-9fa2782fc062}, ! Version UUID
  1366308031,                             ! Creation Timestamp
  1366308031,                             ! Version Timestamp
  {86428ea9-b318-4566-8119-3c344d34f494}; ! Name of Object 1

