
OS:Version,
  {f488864b-e7b5-4741-95b1-bf362947ec2d}, ! Handle
  0.9.3;                                  ! Version Identifier

OS:SizingPeriod:DesignDay,
  {bfb9da30-025d-486c-aab6-85cbd7b25fef}, ! Handle
  BAKERSFIELD Ann Clg 1% Condns DB=>MWB,  ! Name
  38.1,                                   ! Maximum Dry-Bulb Temperature {C}
  14.9,                                   ! Daily Dry-Bulb Temperature Range {deltaC}
  21.2,                                   ! Humidity Indicating Conditions at Maximum Dry-Bulb {BasedOnField A3}
  99536,                                  ! Barometric Pressure {Pa}
  5.3,                                    ! Wind Speed {m/s}
  300,                                    ! Wind Direction {deg}
  0,                                      ! Sky Clearness
  0,                                      ! Rain Indicator
  0,                                      ! Snow Indicator
  21,                                     ! Day of Month
  7,                                      ! Month
  SummerDesignDay,                        ! Day Type
  0,                                      ! Daylight Saving Time Indicator
  Wetbulb,                                ! Humidity Indicating Type
  ,                                       ! Humidity Indicating Day Schedule Name
  DefaultMultipliers,                     ! Dry-Bulb Temperature Range Modifier Type
  ,                                       ! Dry-Bulb Temperature Range Modifier Schedule Name
  ASHRAETau,                              ! Solar Model Indicator
  ,                                       ! Beam Solar Day Schedule Name
  ,                                       ! Diffuse Solar Day Schedule Name
  0.438,                                  ! ASHRAE Taub {dimensionless}
  2.106;                                  ! ASHRAE Taud {dimensionless}

OS:ComponentData,
  {a9818f2f-f15d-4be7-9bce-587bfd0305ab}, ! Handle
  Component Data 1,                       ! Name
  {a19d8475-a526-4143-a4cc-541c8707b403}, ! UUID
  {90394fa4-f998-48f7-b97b-c3cc262497c2}, ! Version UUID
  1366306368,                             ! Creation Timestamp
  1366306368,                             ! Version Timestamp
  {bfb9da30-025d-486c-aab6-85cbd7b25fef}; ! Name of Object 1

