
OS:Version,
  {5f017eed-4d88-4275-91d5-0fdc2be724b0}, ! Handle
  0.9.3;                                  ! Version Identifier

OS:SizingPeriod:DesignDay,
  {b6354567-afbb-4b3b-ad98-b83c4a66a325}, ! Handle
  Hooper Bay Ann Clg .4% Condns DP=>MDB,  ! Name
  15.5,                                   ! Maximum Dry-Bulb Temperature {C}
  3.4,                                    ! Daily Dry-Bulb Temperature Range {deltaC}
  12.8,                                   ! Humidity Indicating Conditions at Maximum Dry-Bulb {BasedOnField A3}
  101253,                                 ! Barometric Pressure {Pa}
  5.1,                                    ! Wind Speed {m/s}
  100,                                    ! Wind Direction {deg}
  0,                                      ! Sky Clearness
  0,                                      ! Rain Indicator
  0,                                      ! Snow Indicator
  21,                                     ! Day of Month
  8,                                      ! Month
  SummerDesignDay,                        ! Day Type
  0,                                      ! Daylight Saving Time Indicator
  Dewpoint,                               ! Humidity Indicating Type
  ,                                       ! Humidity Indicating Day Schedule Name
  DefaultMultipliers,                     ! Dry-Bulb Temperature Range Modifier Type
  ,                                       ! Dry-Bulb Temperature Range Modifier Schedule Name
  ASHRAETau,                              ! Solar Model Indicator
  ,                                       ! Beam Solar Day Schedule Name
  ,                                       ! Diffuse Solar Day Schedule Name
  0.429,                                  ! ASHRAE Taub {dimensionless}
  2.014;                                  ! ASHRAE Taud {dimensionless}

OS:ComponentData,
  {8538611e-3c7a-4423-af84-d7688d0ac70c}, ! Handle
  Component Data 1,                       ! Name
  {2dde8479-6791-49ee-916b-cabc6862efa3}, ! UUID
  {ff0363b4-4215-4e95-847c-44d1fc36f269}, ! Version UUID
  1366305319,                             ! Creation Timestamp
  1366305319,                             ! Version Timestamp
  {b6354567-afbb-4b3b-ad98-b83c4a66a325}; ! Name of Object 1

