
OS:Version,
  {04d8d617-16f2-4d34-9b9a-307a268f63d0}, ! Handle
  0.9.3;                                  ! Version Identifier

OS:SizingPeriod:DesignDay,
  {84c57e8a-c3b3-4b98-8deb-6cec0ff73012}, ! Handle
  AUSTIN Ann Clg 2% Condns WB=>MDB,       ! Name
  31.3,                                   ! Maximum Dry-Bulb Temperature {C}
  12.5,                                   ! Daily Dry-Bulb Temperature Range {deltaC}
  25.4,                                   ! Humidity Indicating Conditions at Maximum Dry-Bulb {BasedOnField A3}
  99075,                                  ! Barometric Pressure {Pa}
  3.7,                                    ! Wind Speed {m/s}
  190,                                    ! Wind Direction {deg}
  0,                                      ! Sky Clearness
  0,                                      ! Rain Indicator
  0,                                      ! Snow Indicator
  21,                                     ! Day of Month
  8,                                      ! Month
  SummerDesignDay,                        ! Day Type
  0,                                      ! Daylight Saving Time Indicator
  Wetbulb,                                ! Humidity Indicating Type
  ,                                       ! Humidity Indicating Day Schedule Name
  DefaultMultipliers,                     ! Dry-Bulb Temperature Range Modifier Type
  ,                                       ! Dry-Bulb Temperature Range Modifier Schedule Name
  ASHRAETau,                              ! Solar Model Indicator
  ,                                       ! Beam Solar Day Schedule Name
  ,                                       ! Diffuse Solar Day Schedule Name
  0.457,                                  ! ASHRAE Taub {dimensionless}
  2.114;                                  ! ASHRAE Taud {dimensionless}

OS:ComponentData,
  {3e4824a1-58bf-4724-b7c2-dabe94fb66cb}, ! Handle
  Component Data 1,                       ! Name
  {5c6a2969-a3ad-4db3-8409-c4ee55d74c31}, ! UUID
  {707c0a2d-b16f-46c5-b30f-60b4f2be0239}, ! Version UUID
  1366310590,                             ! Creation Timestamp
  1366310590,                             ! Version Timestamp
  {84c57e8a-c3b3-4b98-8deb-6cec0ff73012}; ! Name of Object 1

