
OS:Version,
  {583d1f5d-6a95-4698-bdb0-ce4984458c34}, ! Handle
  0.9.3;                                  ! Version Identifier

OS:SizingPeriod:DesignDay,
  {095d733a-eb19-4587-a155-e253b41ff538}, ! Handle
  Abilene Ann Clg 2% Condns Enth=>MDB,    ! Name
  30.5,                                   ! Maximum Dry-Bulb Temperature {C}
  11.6,                                   ! Daily Dry-Bulb Temperature Range {deltaC}
  71100,                                  ! Humidity Indicating Conditions at Maximum Dry-Bulb {BasedOnField A3}
  94935,                                  ! Barometric Pressure {Pa}
  5.3,                                    ! Wind Speed {m/s}
  160,                                    ! Wind Direction {deg}
  0,                                      ! Sky Clearness
  0,                                      ! Rain Indicator
  0,                                      ! Snow Indicator
  21,                                     ! Day of Month
  7,                                      ! Month
  SummerDesignDay,                        ! Day Type
  0,                                      ! Daylight Saving Time Indicator
  Enthalpy,                               ! Humidity Indicating Type
  ,                                       ! Humidity Indicating Day Schedule Name
  DefaultMultipliers,                     ! Dry-Bulb Temperature Range Modifier Type
  ,                                       ! Dry-Bulb Temperature Range Modifier Schedule Name
  ASHRAETau,                              ! Solar Model Indicator
  ,                                       ! Beam Solar Day Schedule Name
  ,                                       ! Diffuse Solar Day Schedule Name
  0.426,                                  ! ASHRAE Taub {dimensionless}
  2.172;                                  ! ASHRAE Taud {dimensionless}

OS:ComponentData,
  {29906a78-a3b9-463b-a902-8d667c35b4ae}, ! Handle
  Component Data 1,                       ! Name
  {00745112-4755-4e6b-8354-e046050a6fb7}, ! UUID
  {e496eb58-f94f-42b8-9f72-28876d2f3695}, ! Version UUID
  1366310556,                             ! Creation Timestamp
  1366310556,                             ! Version Timestamp
  {095d733a-eb19-4587-a155-e253b41ff538}; ! Name of Object 1

