
OS:Version,
  {bb868639-94ea-4330-b23b-bb3d0e631c11}, ! Handle
  0.9.3;                                  ! Version Identifier

OS:SizingPeriod:DesignDay,
  {2f34a291-849e-46f5-a867-ecb326083105}, ! Handle
  Los Angeles Ann Clg .4% Condns DB=>MWB, ! Name
  28.7,                                   ! Maximum Dry-Bulb Temperature {C}
  6,                                      ! Daily Dry-Bulb Temperature Range {deltaC}
  17.9,                                   ! Humidity Indicating Conditions at Maximum Dry-Bulb {BasedOnField A3}
  100941,                                 ! Barometric Pressure {Pa}
  4.1,                                    ! Wind Speed {m/s}
  250,                                    ! Wind Direction {deg}
  0,                                      ! Sky Clearness
  0,                                      ! Rain Indicator
  0,                                      ! Snow Indicator
  21,                                     ! Day of Month
  8,                                      ! Month
  SummerDesignDay,                        ! Day Type
  0,                                      ! Daylight Saving Time Indicator
  Wetbulb,                                ! Humidity Indicating Type
  ,                                       ! Humidity Indicating Day Schedule Name
  DefaultMultipliers,                     ! Dry-Bulb Temperature Range Modifier Type
  ,                                       ! Dry-Bulb Temperature Range Modifier Schedule Name
  ASHRAETau,                              ! Solar Model Indicator
  ,                                       ! Beam Solar Day Schedule Name
  ,                                       ! Diffuse Solar Day Schedule Name
  0.44,                                   ! ASHRAE Taub {dimensionless}
  2.108;                                  ! ASHRAE Taud {dimensionless}

OS:ComponentData,
  {a6136e12-1338-46df-8182-1835dbec384e}, ! Handle
  Component Data 1,                       ! Name
  {72ebcc7c-5782-4ad4-b8a2-f18b21b80a9f}, ! UUID
  {ba6b4163-2fa6-4273-901b-21b785586f4d}, ! Version UUID
  1366306481,                             ! Creation Timestamp
  1366306481,                             ! Version Timestamp
  {2f34a291-849e-46f5-a867-ecb326083105}; ! Name of Object 1

