
OS:Version,
  {63531612-445f-4235-ae50-be68d71dee4b}, ! Handle
  0.9.3;                                  ! Version Identifier

OS:SizingPeriod:DesignDay,
  {e9abe121-0672-43e0-b813-a4427c4ba2e4}, ! Handle
  Corpus Christi Ann Clg .4% Condns WB=>MDB, ! Name
  31.9,                                   ! Maximum Dry-Bulb Temperature {C}
  10.1,                                   ! Daily Dry-Bulb Temperature Range {deltaC}
  27.2,                                   ! Humidity Indicating Conditions at Maximum Dry-Bulb {BasedOnField A3}
  101169,                                 ! Barometric Pressure {Pa}
  6.6,                                    ! Wind Speed {m/s}
  140,                                    ! Wind Direction {deg}
  0,                                      ! Sky Clearness
  0,                                      ! Rain Indicator
  0,                                      ! Snow Indicator
  21,                                     ! Day of Month
  8,                                      ! Month
  SummerDesignDay,                        ! Day Type
  0,                                      ! Daylight Saving Time Indicator
  Wetbulb,                                ! Humidity Indicating Type
  ,                                       ! Humidity Indicating Day Schedule Name
  DefaultMultipliers,                     ! Dry-Bulb Temperature Range Modifier Type
  ,                                       ! Dry-Bulb Temperature Range Modifier Schedule Name
  ASHRAETau,                              ! Solar Model Indicator
  ,                                       ! Beam Solar Day Schedule Name
  ,                                       ! Diffuse Solar Day Schedule Name
  0.463,                                  ! ASHRAE Taub {dimensionless}
  2.116;                                  ! ASHRAE Taud {dimensionless}

OS:ComponentData,
  {d7289ef8-b560-4d0a-8b30-931a8e65c3f5}, ! Handle
  Component Data 1,                       ! Name
  {560ffd6e-f9a8-4834-92cc-c063de75c31f}, ! UUID
  {f7d878c1-39a4-45c1-9a7f-5a2d0771077d}, ! Version UUID
  1366310626,                             ! Creation Timestamp
  1366310626,                             ! Version Timestamp
  {e9abe121-0672-43e0-b813-a4427c4ba2e4}; ! Name of Object 1

