
OS:Version,
  {4961ed31-2232-40bc-882f-dac0b0f54c44}, ! Handle
  0.9.3;                                  ! Version Identifier

OS:SizingPeriod:DesignDay,
  {953d6fb7-7ad7-4a6a-ae7e-ad799a5c5df3}, ! Handle
  Lafayette Purdue Univ Ap Ann Clg 1% Condns WB=>MDB, ! Name
  30.2,                                   ! Maximum Dry-Bulb Temperature {C}
  11.1,                                   ! Daily Dry-Bulb Temperature Range {deltaC}
  25.1,                                   ! Humidity Indicating Conditions at Maximum Dry-Bulb {BasedOnField A3}
  99146,                                  ! Barometric Pressure {Pa}
  4.8,                                    ! Wind Speed {m/s}
  230,                                    ! Wind Direction {deg}
  0,                                      ! Sky Clearness
  0,                                      ! Rain Indicator
  0,                                      ! Snow Indicator
  21,                                     ! Day of Month
  7,                                      ! Month
  SummerDesignDay,                        ! Day Type
  0,                                      ! Daylight Saving Time Indicator
  Wetbulb,                                ! Humidity Indicating Type
  ,                                       ! Humidity Indicating Day Schedule Name
  DefaultMultipliers,                     ! Dry-Bulb Temperature Range Modifier Type
  ,                                       ! Dry-Bulb Temperature Range Modifier Schedule Name
  ASHRAETau,                              ! Solar Model Indicator
  ,                                       ! Beam Solar Day Schedule Name
  ,                                       ! Diffuse Solar Day Schedule Name
  0.463,                                  ! ASHRAE Taub {dimensionless}
  2.02;                                   ! ASHRAE Taud {dimensionless}

OS:ComponentData,
  {faf91026-1c51-40c0-b4b4-075d247b92e2}, ! Handle
  Component Data 1,                       ! Name
  {fc457bf3-76b5-40a4-bd73-c59cf2636e6a}, ! UUID
  {5dd17f1d-f2e0-457b-95ff-d93c881709e3}, ! Version UUID
  1366307472,                             ! Creation Timestamp
  1366307472,                             ! Version Timestamp
  {953d6fb7-7ad7-4a6a-ae7e-ad799a5c5df3}; ! Name of Object 1

