
OS:Version,
  {562ab5c5-b633-488a-bdc9-22380969df79}, ! Handle
  0.9.3;                                  ! Version Identifier

OS:SizingPeriod:DesignDay,
  {b01ba0ac-e825-4c3d-9f3b-25263ef920a9}, ! Handle
  Daytona Beach Intl Ap Ann Htg 99.6% Condns DB, ! Name
  1.5,                                    ! Maximum Dry-Bulb Temperature {C}
  0,                                      ! Daily Dry-Bulb Temperature Range {deltaC}
  1.5,                                    ! Humidity Indicating Conditions at Maximum Dry-Bulb {BasedOnField A3}
  101217,                                 ! Barometric Pressure {Pa}
  2.8,                                    ! Wind Speed {m/s}
  310,                                    ! Wind Direction {deg}
  0,                                      ! Sky Clearness
  0,                                      ! Rain Indicator
  0,                                      ! Snow Indicator
  21,                                     ! Day of Month
  1,                                      ! Month
  WinterDesignDay,                        ! Day Type
  0,                                      ! Daylight Saving Time Indicator
  Wetbulb,                                ! Humidity Indicating Type
  ,                                       ! Humidity Indicating Day Schedule Name
  DefaultMultipliers,                     ! Dry-Bulb Temperature Range Modifier Type
  ,                                       ! Dry-Bulb Temperature Range Modifier Schedule Name
  ASHRAEClearSky;                         ! Solar Model Indicator

OS:ComponentData,
  {c6862460-612e-4e7d-b5e6-e55ea985144d}, ! Handle
  Component Data 1,                       ! Name
  {e0004799-d483-4aab-9b74-061bf90c268a}, ! UUID
  {22d6eb24-d5d7-4fe9-9865-644e2a7ee79b}, ! Version UUID
  1366306792,                             ! Creation Timestamp
  1366306792,                             ! Version Timestamp
  {b01ba0ac-e825-4c3d-9f3b-25263ef920a9}; ! Name of Object 1

