
OS:Version,
  {e2546498-e6a3-4b86-9b4a-38924259700e}, ! Handle
  0.9.3;                                  ! Version Identifier

OS:SizingPeriod:DesignDay,
  {c8da37b7-503e-48a6-af51-b56705065918}, ! Handle
  BATON_ROUGE Ann Clg 2% Condns Enth=>MDB, ! Name
  30.6,                                   ! Maximum Dry-Bulb Temperature {C}
  9.4,                                    ! Daily Dry-Bulb Temperature Range {deltaC}
  80400,                                  ! Humidity Indicating Conditions at Maximum Dry-Bulb {BasedOnField A3}
  101049,                                 ! Barometric Pressure {Pa}
  3.3,                                    ! Wind Speed {m/s}
  260,                                    ! Wind Direction {deg}
  0,                                      ! Sky Clearness
  0,                                      ! Rain Indicator
  0,                                      ! Snow Indicator
  21,                                     ! Day of Month
  7,                                      ! Month
  SummerDesignDay,                        ! Day Type
  0,                                      ! Daylight Saving Time Indicator
  Enthalpy,                               ! Humidity Indicating Type
  ,                                       ! Humidity Indicating Day Schedule Name
  DefaultMultipliers,                     ! Dry-Bulb Temperature Range Modifier Type
  ,                                       ! Dry-Bulb Temperature Range Modifier Schedule Name
  ASHRAETau,                              ! Solar Model Indicator
  ,                                       ! Beam Solar Day Schedule Name
  ,                                       ! Diffuse Solar Day Schedule Name
  0.542,                                  ! ASHRAE Taub {dimensionless}
  1.845;                                  ! ASHRAE Taud {dimensionless}

OS:ComponentData,
  {c5d4e8e7-b96d-442b-8f65-273fd2ec289a}, ! Handle
  Component Data 1,                       ! Name
  {321585fe-7eaf-4e0e-b04e-48380f76fd38}, ! UUID
  {e7454905-131b-4892-a32d-d4f9e78d4d92}, ! Version UUID
  1366307712,                             ! Creation Timestamp
  1366307712,                             ! Version Timestamp
  {c8da37b7-503e-48a6-af51-b56705065918}; ! Name of Object 1

