
OS:Version,
  {2daa6bb2-6c8e-4f38-950c-348015fd05ac}, ! Handle
  0.9.3;                                  ! Version Identifier

OS:SizingPeriod:DesignDay,
  {ff1e4aa7-badc-48e7-a08f-b8d758d06042}, ! Handle
  Dekalb Peachtree Ann Hum_n 99% Condns DP=>MCDB, ! Name
  0.5,                                    ! Maximum Dry-Bulb Temperature {C}
  0,                                      ! Daily Dry-Bulb Temperature Range {deltaC}
  -12.5,                                  ! Humidity Indicating Conditions at Maximum Dry-Bulb {BasedOnField A3}
  97621,                                  ! Barometric Pressure {Pa}
  3.4,                                    ! Wind Speed {m/s}
  320,                                    ! Wind Direction {deg}
  0,                                      ! Sky Clearness
  0,                                      ! Rain Indicator
  0,                                      ! Snow Indicator
  21,                                     ! Day of Month
  1,                                      ! Month
  WinterDesignDay,                        ! Day Type
  0,                                      ! Daylight Saving Time Indicator
  Dewpoint,                               ! Humidity Indicating Type
  ,                                       ! Humidity Indicating Day Schedule Name
  DefaultMultipliers,                     ! Dry-Bulb Temperature Range Modifier Type
  ,                                       ! Dry-Bulb Temperature Range Modifier Schedule Name
  ASHRAEClearSky;                         ! Solar Model Indicator

OS:ComponentData,
  {73a87c7c-35d7-4a52-ac05-18549aa29cec}, ! Handle
  Component Data 1,                       ! Name
  {e84d6d71-ba1f-4c2c-bded-b024d43cbf6f}, ! UUID
  {a65fd792-c831-4f38-b966-7e7d2d859211}, ! Version UUID
  1366307007,                             ! Creation Timestamp
  1366307007,                             ! Version Timestamp
  {ff1e4aa7-badc-48e7-a08f-b8d758d06042}; ! Name of Object 1

