
OS:Version,
  {23921f6e-efb6-45e7-afed-e573dd9e5233}, ! Handle
  0.9.3;                                  ! Version Identifier

OS:SizingPeriod:DesignDay,
  {2b88a7d2-740f-4fe7-a227-68f0e9c84534}, ! Handle
  FORT_WAYNE Ann Clg 2% Condns Enth=>MDB, ! Name
  27.7,                                   ! Maximum Dry-Bulb Temperature {C}
  11.1,                                   ! Daily Dry-Bulb Temperature Range {deltaC}
  71300,                                  ! Humidity Indicating Conditions at Maximum Dry-Bulb {BasedOnField A3}
  98334,                                  ! Barometric Pressure {Pa}
  5,                                      ! Wind Speed {m/s}
  240,                                    ! Wind Direction {deg}
  0,                                      ! Sky Clearness
  0,                                      ! Rain Indicator
  0,                                      ! Snow Indicator
  21,                                     ! Day of Month
  7,                                      ! Month
  SummerDesignDay,                        ! Day Type
  0,                                      ! Daylight Saving Time Indicator
  Enthalpy,                               ! Humidity Indicating Type
  ,                                       ! Humidity Indicating Day Schedule Name
  DefaultMultipliers,                     ! Dry-Bulb Temperature Range Modifier Type
  ,                                       ! Dry-Bulb Temperature Range Modifier Schedule Name
  ASHRAETau,                              ! Solar Model Indicator
  ,                                       ! Beam Solar Day Schedule Name
  ,                                       ! Diffuse Solar Day Schedule Name
  0.451,                                  ! ASHRAE Taub {dimensionless}
  2.059;                                  ! ASHRAE Taud {dimensionless}

OS:ComponentData,
  {b9c5d5c8-d113-47b4-8a7b-71eee098337f}, ! Handle
  Component Data 1,                       ! Name
  {7741ac15-71c6-4820-adce-2815af7987e8}, ! UUID
  {ef664e70-f184-4d73-8e93-1e1b9ccdc42f}, ! Version UUID
  1366307438,                             ! Creation Timestamp
  1366307438,                             ! Version Timestamp
  {2b88a7d2-740f-4fe7-a227-68f0e9c84534}; ! Name of Object 1

