
OS:Version,
  {a5cc6759-0181-4069-9bfd-e21a99c71835}, ! Handle
  0.9.3;                                  ! Version Identifier

OS:SizingPeriod:DesignDay,
  {4d0988cb-da59-405c-8c99-28864e563c27}, ! Handle
  Houston Ellington Afb  Clear Ann Clg .4% Condns WB=>MDB, ! Name
  31.5,                                   ! Maximum Dry-Bulb Temperature {C}
  9.2,                                    ! Daily Dry-Bulb Temperature Range {deltaC}
  27.8,                                   ! Humidity Indicating Conditions at Maximum Dry-Bulb {BasedOnField A3}
  101253,                                 ! Barometric Pressure {Pa}
  3.5,                                    ! Wind Speed {m/s}
  160,                                    ! Wind Direction {deg}
  0,                                      ! Sky Clearness
  0,                                      ! Rain Indicator
  0,                                      ! Snow Indicator
  21,                                     ! Day of Month
  7,                                      ! Month
  SummerDesignDay,                        ! Day Type
  0,                                      ! Daylight Saving Time Indicator
  Wetbulb,                                ! Humidity Indicating Type
  ,                                       ! Humidity Indicating Day Schedule Name
  DefaultMultipliers,                     ! Dry-Bulb Temperature Range Modifier Type
  ,                                       ! Dry-Bulb Temperature Range Modifier Schedule Name
  ASHRAETau,                              ! Solar Model Indicator
  ,                                       ! Beam Solar Day Schedule Name
  ,                                       ! Diffuse Solar Day Schedule Name
  0.503,                                  ! ASHRAE Taub {dimensionless}
  1.96;                                   ! ASHRAE Taud {dimensionless}

OS:ComponentData,
  {df234da6-2cdf-491a-b98a-f81a730a9b19}, ! Handle
  Component Data 1,                       ! Name
  {cfcb5493-7041-40a9-8ee9-c9dd8e9820f1}, ! UUID
  {17ee9644-eb9a-47da-8892-39c3bbc05aad}, ! Version UUID
  1366310751,                             ! Creation Timestamp
  1366310751,                             ! Version Timestamp
  {4d0988cb-da59-405c-8c99-28864e563c27}; ! Name of Object 1

