
OS:Version,
  {00cabbb7-545c-4e9f-98c7-f878f928ba86}, ! Handle
  0.9.3;                                  ! Version Identifier

OS:SizingPeriod:DesignDay,
  {756fe48f-3f20-4af1-bb33-b442044deda8}, ! Handle
  Glens Falls Ap Ann Clg 1% Condns Enth=>MDB, ! Name
  27.5,                                   ! Maximum Dry-Bulb Temperature {C}
  12.1,                                   ! Daily Dry-Bulb Temperature Range {deltaC}
  69100,                                  ! Humidity Indicating Conditions at Maximum Dry-Bulb {BasedOnField A3}
  100153,                                 ! Barometric Pressure {Pa}
  4.2,                                    ! Wind Speed {m/s}
  180,                                    ! Wind Direction {deg}
  0,                                      ! Sky Clearness
  0,                                      ! Rain Indicator
  0,                                      ! Snow Indicator
  21,                                     ! Day of Month
  7,                                      ! Month
  SummerDesignDay,                        ! Day Type
  0,                                      ! Daylight Saving Time Indicator
  Enthalpy,                               ! Humidity Indicating Type
  ,                                       ! Humidity Indicating Day Schedule Name
  DefaultMultipliers,                     ! Dry-Bulb Temperature Range Modifier Type
  ,                                       ! Dry-Bulb Temperature Range Modifier Schedule Name
  ASHRAETau,                              ! Solar Model Indicator
  ,                                       ! Beam Solar Day Schedule Name
  ,                                       ! Diffuse Solar Day Schedule Name
  0.484,                                  ! ASHRAE Taub {dimensionless}
  1.921;                                  ! ASHRAE Taud {dimensionless}

OS:ComponentData,
  {2cf59656-08f1-4791-b4a4-c7dc2f09e101}, ! Handle
  Component Data 1,                       ! Name
  {12767079-411c-4113-98f2-172078168e95}, ! UUID
  {23a9523d-0a58-4eee-9a05-3c1ef1f44554}, ! Version UUID
  1366309628,                             ! Creation Timestamp
  1366309628,                             ! Version Timestamp
  {756fe48f-3f20-4af1-bb33-b442044deda8}; ! Name of Object 1

