
OS:Version,
  {accece68-2ad1-4802-a29b-3e35c6bcdcac}, ! Handle
  0.9.3;                                  ! Version Identifier

OS:SizingPeriod:DesignDay,
  {09d530d6-85e3-4cf8-be55-72b0d1fd22f9}, ! Handle
  LEWISTOWN Ann Clg .4% Condns WB=>MDB,   ! Name
  28,                                     ! Maximum Dry-Bulb Temperature {C}
  15.7,                                   ! Daily Dry-Bulb Temperature Range {deltaC}
  17.9,                                   ! Humidity Indicating Conditions at Maximum Dry-Bulb {BasedOnField A3}
  87034,                                  ! Barometric Pressure {Pa}
  4.3,                                    ! Wind Speed {m/s}
  0,                                      ! Wind Direction {deg}
  0,                                      ! Sky Clearness
  0,                                      ! Rain Indicator
  0,                                      ! Snow Indicator
  21,                                     ! Day of Month
  7,                                      ! Month
  SummerDesignDay,                        ! Day Type
  0,                                      ! Daylight Saving Time Indicator
  Wetbulb,                                ! Humidity Indicating Type
  ,                                       ! Humidity Indicating Day Schedule Name
  DefaultMultipliers,                     ! Dry-Bulb Temperature Range Modifier Type
  ,                                       ! Dry-Bulb Temperature Range Modifier Schedule Name
  ASHRAETau,                              ! Solar Model Indicator
  ,                                       ! Beam Solar Day Schedule Name
  ,                                       ! Diffuse Solar Day Schedule Name
  0.382,                                  ! ASHRAE Taub {dimensionless}
  2.178;                                  ! ASHRAE Taud {dimensionless}

OS:ComponentData,
  {94b1ff34-d2d5-4cde-8d55-80fb3dca8a5c}, ! Handle
  Component Data 1,                       ! Name
  {01adbc9b-f791-458a-9cc8-a9aa84431a0e}, ! UUID
  {707b7694-b8c6-4edb-82c4-1aa1b4764a72}, ! Version UUID
  1366308812,                             ! Creation Timestamp
  1366308812,                             ! Version Timestamp
  {09d530d6-85e3-4cf8-be55-72b0d1fd22f9}; ! Name of Object 1

