
OS:Version,
  {729ee638-85f3-4275-a8b4-644ef26b4943}, ! Handle
  0.9.3;                                  ! Version Identifier

OS:SizingPeriod:DesignDay,
  {3b51bb84-131f-4371-9932-6b74a3e62ac0}, ! Handle
  La Junta Municipal Ap Ann Hum_n 99% Condns DP=>MCDB, ! Name
  -9,                                     ! Maximum Dry-Bulb Temperature {C}
  0,                                      ! Daily Dry-Bulb Temperature Range {deltaC}
  -18.2,                                  ! Humidity Indicating Conditions at Maximum Dry-Bulb {BasedOnField A3}
  86853,                                  ! Barometric Pressure {Pa}
  3.8,                                    ! Wind Speed {m/s}
  270,                                    ! Wind Direction {deg}
  0,                                      ! Sky Clearness
  0,                                      ! Rain Indicator
  0,                                      ! Snow Indicator
  21,                                     ! Day of Month
  12,                                     ! Month
  WinterDesignDay,                        ! Day Type
  0,                                      ! Daylight Saving Time Indicator
  Dewpoint,                               ! Humidity Indicating Type
  ,                                       ! Humidity Indicating Day Schedule Name
  DefaultMultipliers,                     ! Dry-Bulb Temperature Range Modifier Type
  ,                                       ! Dry-Bulb Temperature Range Modifier Schedule Name
  ASHRAEClearSky;                         ! Solar Model Indicator

OS:ComponentData,
  {c0dd1476-0e58-4a93-8ba7-b2f19c651790}, ! Handle
  Component Data 1,                       ! Name
  {82dcc36e-7753-44a1-96ad-72c8acafe287}, ! UUID
  {982137a4-dcb3-4183-ab1f-22011eb57371}, ! Version UUID
  1366306714,                             ! Creation Timestamp
  1366306714,                             ! Version Timestamp
  {3b51bb84-131f-4371-9932-6b74a3e62ac0}; ! Name of Object 1

