
OS:Version,
  {cb60e89d-ccdf-44cc-a9bb-0096d55c9b0d}, ! Handle
  0.9.3;                                  ! Version Identifier

OS:SizingPeriod:DesignDay,
  {b11b31a3-e3d1-4a13-916f-d4fb575fac67}, ! Handle
  Cincinnati Northern Ky Ap Ann Clg 1% Condns DP=>MDB, ! Name
  27.1,                                   ! Maximum Dry-Bulb Temperature {C}
  10.3,                                   ! Daily Dry-Bulb Temperature Range {deltaC}
  22.9,                                   ! Humidity Indicating Conditions at Maximum Dry-Bulb {BasedOnField A3}
  98182,                                  ! Barometric Pressure {Pa}
  4.3,                                    ! Wind Speed {m/s}
  230,                                    ! Wind Direction {deg}
  0,                                      ! Sky Clearness
  0,                                      ! Rain Indicator
  0,                                      ! Snow Indicator
  21,                                     ! Day of Month
  7,                                      ! Month
  SummerDesignDay,                        ! Day Type
  0,                                      ! Daylight Saving Time Indicator
  Dewpoint,                               ! Humidity Indicating Type
  ,                                       ! Humidity Indicating Day Schedule Name
  DefaultMultipliers,                     ! Dry-Bulb Temperature Range Modifier Type
  ,                                       ! Dry-Bulb Temperature Range Modifier Schedule Name
  ASHRAETau,                              ! Solar Model Indicator
  ,                                       ! Beam Solar Day Schedule Name
  ,                                       ! Diffuse Solar Day Schedule Name
  0.493,                                  ! ASHRAE Taub {dimensionless}
  1.911;                                  ! ASHRAE Taud {dimensionless}

OS:ComponentData,
  {0931c29c-abe5-4581-9c4a-d01911aa06ee}, ! Handle
  Component Data 1,                       ! Name
  {94a188f6-c3a2-41f9-bcca-cd59e133f564}, ! UUID
  {a1660549-56a7-45f7-86e2-3970b86a5b7d}, ! Version UUID
  1366307622,                             ! Creation Timestamp
  1366307622,                             ! Version Timestamp
  {b11b31a3-e3d1-4a13-916f-d4fb575fac67}; ! Name of Object 1

