
OS:Version,
  {636182bc-b30f-48dd-8247-e472993766d7}, ! Handle
  0.9.3;                                  ! Version Identifier

OS:SizingPeriod:DesignDay,
  {604a89e0-12b4-4b66-8452-37c1d80e5c0f}, ! Handle
  Lovelock Derby Field Ann Clg .4% Condns DB=>MWB, ! Name
  37.3,                                   ! Maximum Dry-Bulb Temperature {C}
  20.2,                                   ! Daily Dry-Bulb Temperature Range {deltaC}
  17,                                     ! Humidity Indicating Conditions at Maximum Dry-Bulb {BasedOnField A3}
  87833,                                  ! Barometric Pressure {Pa}
  4.1,                                    ! Wind Speed {m/s}
  180,                                    ! Wind Direction {deg}
  0,                                      ! Sky Clearness
  0,                                      ! Rain Indicator
  0,                                      ! Snow Indicator
  21,                                     ! Day of Month
  7,                                      ! Month
  SummerDesignDay,                        ! Day Type
  0,                                      ! Daylight Saving Time Indicator
  Wetbulb,                                ! Humidity Indicating Type
  ,                                       ! Humidity Indicating Day Schedule Name
  DefaultMultipliers,                     ! Dry-Bulb Temperature Range Modifier Type
  ,                                       ! Dry-Bulb Temperature Range Modifier Schedule Name
  ASHRAETau,                              ! Solar Model Indicator
  ,                                       ! Beam Solar Day Schedule Name
  ,                                       ! Diffuse Solar Day Schedule Name
  0.427,                                  ! ASHRAE Taub {dimensionless}
  1.948;                                  ! ASHRAE Taud {dimensionless}

OS:ComponentData,
  {440d579a-205a-410d-9c0a-fc52d123fed5}, ! Handle
  Component Data 1,                       ! Name
  {f5bbf04f-603f-4b36-ba7b-1472a5873804}, ! UUID
  {67881427-7b5f-4237-97da-2c8dd1f4e527}, ! Version UUID
  1366309516,                             ! Creation Timestamp
  1366309516,                             ! Version Timestamp
  {604a89e0-12b4-4b66-8452-37c1d80e5c0f}; ! Name of Object 1

