
OS:Version,
  {aa8de679-74e6-4da9-83af-d9db5b4e82a5}, ! Handle
  0.9.3;                                  ! Version Identifier

OS:SizingPeriod:DesignDay,
  {793c4635-f4b1-4bf9-bd1f-e09e7e446b50}, ! Handle
  Brunswick Malcolm Mckinnon Ap Ann Clg 2% Condns DP=>MDB, ! Name
  28.6,                                   ! Maximum Dry-Bulb Temperature {C}
  7.7,                                    ! Daily Dry-Bulb Temperature Range {deltaC}
  25,                                     ! Humidity Indicating Conditions at Maximum Dry-Bulb {BasedOnField A3}
  101277,                                 ! Barometric Pressure {Pa}
  4.5,                                    ! Wind Speed {m/s}
  250,                                    ! Wind Direction {deg}
  0,                                      ! Sky Clearness
  0,                                      ! Rain Indicator
  0,                                      ! Snow Indicator
  21,                                     ! Day of Month
  7,                                      ! Month
  SummerDesignDay,                        ! Day Type
  0,                                      ! Daylight Saving Time Indicator
  Dewpoint,                               ! Humidity Indicating Type
  ,                                       ! Humidity Indicating Day Schedule Name
  DefaultMultipliers,                     ! Dry-Bulb Temperature Range Modifier Type
  ,                                       ! Dry-Bulb Temperature Range Modifier Schedule Name
  ASHRAETau,                              ! Solar Model Indicator
  ,                                       ! Beam Solar Day Schedule Name
  ,                                       ! Diffuse Solar Day Schedule Name
  0.564,                                  ! ASHRAE Taub {dimensionless}
  1.805;                                  ! ASHRAE Taud {dimensionless}

OS:ComponentData,
  {280e5d41-b7f8-42e0-8a87-323385d5ce05}, ! Handle
  Component Data 1,                       ! Name
  {cc531c9d-b315-4a23-b256-a1e8104c73e5}, ! UUID
  {b22c3cfc-83d0-46cc-9854-b584114324c0}, ! Version UUID
  1366306997,                             ! Creation Timestamp
  1366306997,                             ! Version Timestamp
  {793c4635-f4b1-4bf9-bd1f-e09e7e446b50}; ! Name of Object 1

