
OS:Version,
  {99e2bd2d-c230-4dda-a42b-1493bc597cc5}, ! Handle
  0.9.3;                                  ! Version Identifier

OS:SizingPeriod:DesignDay,
  {debeece9-9ca7-4754-bdf6-bd03142c1de7}, ! Handle
  Huntingburg Ann Clg 2% Condns DP=>MDB,  ! Name
  26.8,                                   ! Maximum Dry-Bulb Temperature {C}
  10.4,                                   ! Daily Dry-Bulb Temperature Range {deltaC}
  23,                                     ! Humidity Indicating Conditions at Maximum Dry-Bulb {BasedOnField A3}
  99406,                                  ! Barometric Pressure {Pa}
  3.9,                                    ! Wind Speed {m/s}
  210,                                    ! Wind Direction {deg}
  0,                                      ! Sky Clearness
  0,                                      ! Rain Indicator
  0,                                      ! Snow Indicator
  21,                                     ! Day of Month
  7,                                      ! Month
  SummerDesignDay,                        ! Day Type
  0,                                      ! Daylight Saving Time Indicator
  Dewpoint,                               ! Humidity Indicating Type
  ,                                       ! Humidity Indicating Day Schedule Name
  DefaultMultipliers,                     ! Dry-Bulb Temperature Range Modifier Type
  ,                                       ! Dry-Bulb Temperature Range Modifier Schedule Name
  ASHRAETau,                              ! Solar Model Indicator
  ,                                       ! Beam Solar Day Schedule Name
  ,                                       ! Diffuse Solar Day Schedule Name
  0.504,                                  ! ASHRAE Taub {dimensionless}
  1.89;                                   ! ASHRAE Taud {dimensionless}

OS:ComponentData,
  {61e78c02-7464-4ff5-976c-ebd5f55151de}, ! Handle
  Component Data 1,                       ! Name
  {20e9b6c3-0d6d-40cf-a8d4-42cf602d8e8b}, ! UUID
  {c9614d43-f752-445c-8b79-a0aa7a74c860}, ! Version UUID
  1366307455,                             ! Creation Timestamp
  1366307455,                             ! Version Timestamp
  {debeece9-9ca7-4754-bdf6-bd03142c1de7}; ! Name of Object 1

