
OS:Version,
  {f0709f8c-c32c-4ad1-b91c-183d2f12e866}, ! Handle
  0.9.3;                                  ! Version Identifier

OS:SizingPeriod:DesignDay,
  {42e88248-c7dd-4d58-bdf2-08f1455fede0}, ! Handle
  Beale Afb Ann Clg 1% Condns Enth=>MDB,  ! Name
  34.5,                                   ! Maximum Dry-Bulb Temperature {C}
  16.6,                                   ! Daily Dry-Bulb Temperature Range {deltaC}
  63600,                                  ! Humidity Indicating Conditions at Maximum Dry-Bulb {BasedOnField A3}
  100869,                                 ! Barometric Pressure {Pa}
  2.4,                                    ! Wind Speed {m/s}
  200,                                    ! Wind Direction {deg}
  0,                                      ! Sky Clearness
  0,                                      ! Rain Indicator
  0,                                      ! Snow Indicator
  21,                                     ! Day of Month
  7,                                      ! Month
  SummerDesignDay,                        ! Day Type
  0,                                      ! Daylight Saving Time Indicator
  Enthalpy,                               ! Humidity Indicating Type
  ,                                       ! Humidity Indicating Day Schedule Name
  DefaultMultipliers,                     ! Dry-Bulb Temperature Range Modifier Type
  ,                                       ! Dry-Bulb Temperature Range Modifier Schedule Name
  ASHRAETau,                              ! Solar Model Indicator
  ,                                       ! Beam Solar Day Schedule Name
  ,                                       ! Diffuse Solar Day Schedule Name
  0.381,                                  ! ASHRAE Taub {dimensionless}
  2.368;                                  ! ASHRAE Taud {dimensionless}

OS:ComponentData,
  {119543f2-e3e9-4c7a-827d-708cb4458f5d}, ! Handle
  Component Data 1,                       ! Name
  {52ae281b-5625-4405-9c4a-497154c881b6}, ! UUID
  {4510869d-0487-4ed6-aed6-a983e4ade3cf}, ! Version UUID
  1366306380,                             ! Creation Timestamp
  1366306380,                             ! Version Timestamp
  {42e88248-c7dd-4d58-bdf2-08f1455fede0}; ! Name of Object 1

