
OS:Version,
  {f4188d85-8c5c-4c79-a676-f0dbc423af6a}, ! Handle
  0.9.3;                                  ! Version Identifier

OS:SizingPeriod:DesignDay,
  {390e8b6f-da07-40c1-8a6c-173ca59b265c}, ! Handle
  Brainerd Wieland Ann Hum_n 99% Condns DP=>MCDB, ! Name
  -23.2,                                  ! Maximum Dry-Bulb Temperature {C}
  0,                                      ! Daily Dry-Bulb Temperature Range {deltaC}
  -28.6,                                  ! Humidity Indicating Conditions at Maximum Dry-Bulb {BasedOnField A3}
  96912,                                  ! Barometric Pressure {Pa}
  1.5,                                    ! Wind Speed {m/s}
  240,                                    ! Wind Direction {deg}
  0,                                      ! Sky Clearness
  0,                                      ! Rain Indicator
  0,                                      ! Snow Indicator
  21,                                     ! Day of Month
  1,                                      ! Month
  WinterDesignDay,                        ! Day Type
  0,                                      ! Daylight Saving Time Indicator
  Dewpoint,                               ! Humidity Indicating Type
  ,                                       ! Humidity Indicating Day Schedule Name
  DefaultMultipliers,                     ! Dry-Bulb Temperature Range Modifier Type
  ,                                       ! Dry-Bulb Temperature Range Modifier Schedule Name
  ASHRAEClearSky;                         ! Solar Model Indicator

OS:ComponentData,
  {88f305a6-14fc-401a-bbee-5c96dc867b53}, ! Handle
  Component Data 1,                       ! Name
  {89741d5e-3786-435d-89d7-85472dbff554}, ! UUID
  {12e9a711-5c87-41cb-97d0-12b5fb211e86}, ! Version UUID
  1366308171,                             ! Creation Timestamp
  1366308171,                             ! Version Timestamp
  {390e8b6f-da07-40c1-8a6c-173ca59b265c}; ! Name of Object 1

