
OS:Version,
  {e34477fa-bfdc-41f7-abb3-82e240e95bb1}, ! Handle
  0.9.3;                                  ! Version Identifier

OS:SizingPeriod:DesignDay,
  {2f2fe741-2062-4ce9-99b0-120addb5be3e}, ! Handle
  Lewistown Ann Clg 1% Condns WB=>MDB,    ! Name
  27.1,                                   ! Maximum Dry-Bulb Temperature {C}
  15.7,                                   ! Daily Dry-Bulb Temperature Range {deltaC}
  16.9,                                   ! Humidity Indicating Conditions at Maximum Dry-Bulb {BasedOnField A3}
  86970,                                  ! Barometric Pressure {Pa}
  4.3,                                    ! Wind Speed {m/s}
  0,                                      ! Wind Direction {deg}
  0,                                      ! Sky Clearness
  0,                                      ! Rain Indicator
  0,                                      ! Snow Indicator
  21,                                     ! Day of Month
  7,                                      ! Month
  SummerDesignDay,                        ! Day Type
  0,                                      ! Daylight Saving Time Indicator
  Wetbulb,                                ! Humidity Indicating Type
  ,                                       ! Humidity Indicating Day Schedule Name
  DefaultMultipliers,                     ! Dry-Bulb Temperature Range Modifier Type
  ,                                       ! Dry-Bulb Temperature Range Modifier Schedule Name
  ASHRAETau,                              ! Solar Model Indicator
  ,                                       ! Beam Solar Day Schedule Name
  ,                                       ! Diffuse Solar Day Schedule Name
  0.382,                                  ! ASHRAE Taub {dimensionless}
  2.178;                                  ! ASHRAE Taud {dimensionless}

OS:ComponentData,
  {58e41a6b-f69f-42a8-b734-6736fac54ff5}, ! Handle
  Component Data 1,                       ! Name
  {64da2983-a1e4-4df7-afa8-2a93687c8630}, ! UUID
  {f267677a-5831-45b9-bcb2-b87732ff644b}, ! Version UUID
  1366308817,                             ! Creation Timestamp
  1366308817,                             ! Version Timestamp
  {2f2fe741-2062-4ce9-99b0-120addb5be3e}; ! Name of Object 1

