
OS:Version,
  {485ec7fd-adec-4367-9087-1d00fb1e7d27}, ! Handle
  0.9.3;                                  ! Version Identifier

OS:SizingPeriod:DesignDay,
  {1fb86bbc-6f18-49a4-9f61-0541b6e7b8ea}, ! Handle
  Cahokia St  Louis Ann Clg 1% Condns DB=>MWB, ! Name
  33,                                     ! Maximum Dry-Bulb Temperature {C}
  11,                                     ! Daily Dry-Bulb Temperature Range {deltaC}
  24.7,                                   ! Humidity Indicating Conditions at Maximum Dry-Bulb {BasedOnField A3}
  99820,                                  ! Barometric Pressure {Pa}
  3.5,                                    ! Wind Speed {m/s}
  200,                                    ! Wind Direction {deg}
  0,                                      ! Sky Clearness
  0,                                      ! Rain Indicator
  0,                                      ! Snow Indicator
  21,                                     ! Day of Month
  7,                                      ! Month
  SummerDesignDay,                        ! Day Type
  0,                                      ! Daylight Saving Time Indicator
  Wetbulb,                                ! Humidity Indicating Type
  ,                                       ! Humidity Indicating Day Schedule Name
  DefaultMultipliers,                     ! Dry-Bulb Temperature Range Modifier Type
  ,                                       ! Dry-Bulb Temperature Range Modifier Schedule Name
  ASHRAETau,                              ! Solar Model Indicator
  ,                                       ! Beam Solar Day Schedule Name
  ,                                       ! Diffuse Solar Day Schedule Name
  0.481,                                  ! ASHRAE Taub {dimensionless}
  1.975;                                  ! ASHRAE Taud {dimensionless}

OS:ComponentData,
  {eec4c4dd-8057-4b2c-b7be-43e8884de38f}, ! Handle
  Component Data 1,                       ! Name
  {4f3afa33-22a0-4022-8d43-e099f78f29c2}, ! UUID
  {aed1d6c2-4470-429a-8854-e325ff72f1a7}, ! Version UUID
  1366307327,                             ! Creation Timestamp
  1366307327,                             ! Version Timestamp
  {1fb86bbc-6f18-49a4-9f61-0541b6e7b8ea}; ! Name of Object 1

