
OS:Version,
  {8742700b-09b3-4697-8a99-15a348fb36e6}, ! Handle
  0.9.3;                                  ! Version Identifier

OS:SizingPeriod:DesignDay,
  {933161a8-4846-4d51-b870-cb3f7ebd7972}, ! Handle
  Augusta Airport Ann Clg .4% Condns DB=>MWB, ! Name
  30.6,                                   ! Maximum Dry-Bulb Temperature {C}
  10.1,                                   ! Daily Dry-Bulb Temperature Range {deltaC}
  21.5,                                   ! Humidity Indicating Conditions at Maximum Dry-Bulb {BasedOnField A3}
  100046,                                 ! Barometric Pressure {Pa}
  4.6,                                    ! Wind Speed {m/s}
  240,                                    ! Wind Direction {deg}
  0,                                      ! Sky Clearness
  0,                                      ! Rain Indicator
  0,                                      ! Snow Indicator
  21,                                     ! Day of Month
  7,                                      ! Month
  SummerDesignDay,                        ! Day Type
  0,                                      ! Daylight Saving Time Indicator
  Wetbulb,                                ! Humidity Indicating Type
  ,                                       ! Humidity Indicating Day Schedule Name
  DefaultMultipliers,                     ! Dry-Bulb Temperature Range Modifier Type
  ,                                       ! Dry-Bulb Temperature Range Modifier Schedule Name
  ASHRAETau,                              ! Solar Model Indicator
  ,                                       ! Beam Solar Day Schedule Name
  ,                                       ! Diffuse Solar Day Schedule Name
  0.458,                                  ! ASHRAE Taub {dimensionless}
  2.009;                                  ! ASHRAE Taud {dimensionless}

OS:ComponentData,
  {b004678e-fff6-4c5c-a482-a32990c88b9d}, ! Handle
  Component Data 1,                       ! Name
  {6106bac8-aca7-483f-9f39-de196571d8a1}, ! UUID
  {d185f97f-6ad9-42d3-ad76-88981057aa1e}, ! Version UUID
  1366307868,                             ! Creation Timestamp
  1366307868,                             ! Version Timestamp
  {933161a8-4846-4d51-b870-cb3f7ebd7972}; ! Name of Object 1

