
OS:Version,
  {dff29dfd-31f2-4e50-9bbc-ccac0cb4ee6c}, ! Handle
  0.9.3;                                  ! Version Identifier

OS:SizingPeriod:DesignDay,
  {452be946-c910-4843-9f6d-14a4d3c3a67d}, ! Handle
  Clinton Sherman Ann Clg 2% Condns DP=>MDB, ! Name
  26.6,                                   ! Maximum Dry-Bulb Temperature {C}
  12.8,                                   ! Daily Dry-Bulb Temperature Range {deltaC}
  21.3,                                   ! Humidity Indicating Conditions at Maximum Dry-Bulb {BasedOnField A3}
  94480,                                  ! Barometric Pressure {Pa}
  6.1,                                    ! Wind Speed {m/s}
  190,                                    ! Wind Direction {deg}
  0,                                      ! Sky Clearness
  0,                                      ! Rain Indicator
  0,                                      ! Snow Indicator
  21,                                     ! Day of Month
  7,                                      ! Month
  SummerDesignDay,                        ! Day Type
  0,                                      ! Daylight Saving Time Indicator
  Dewpoint,                               ! Humidity Indicating Type
  ,                                       ! Humidity Indicating Day Schedule Name
  DefaultMultipliers,                     ! Dry-Bulb Temperature Range Modifier Type
  ,                                       ! Dry-Bulb Temperature Range Modifier Schedule Name
  ASHRAETau,                              ! Solar Model Indicator
  ,                                       ! Beam Solar Day Schedule Name
  ,                                       ! Diffuse Solar Day Schedule Name
  0.405,                                  ! ASHRAE Taub {dimensionless}
  2.264;                                  ! ASHRAE Taud {dimensionless}

OS:ComponentData,
  {e53edf1e-4c46-4e17-86cf-587f5b213094}, ! Handle
  Component Data 1,                       ! Name
  {b369f76b-ceb0-4bd6-b001-6171a82d7711}, ! UUID
  {5f38cd94-feab-415d-9ea3-e5099d7738e5}, ! Version UUID
  1366309885,                             ! Creation Timestamp
  1366309885,                             ! Version Timestamp
  {452be946-c910-4843-9f6d-14a4d3c3a67d}; ! Name of Object 1

