
OS:Version,
  {886c5215-c6be-4d5c-b47e-967b9176b530}, ! Handle
  0.9.3;                                  ! Version Identifier

OS:SizingPeriod:DesignDay,
  {6667d7b7-06b2-4f87-b014-164799008700}, ! Handle
  Auburn Lewiston Ann Clg 1% Condns DB=>MWB, ! Name
  28.7,                                   ! Maximum Dry-Bulb Temperature {C}
  11.4,                                   ! Daily Dry-Bulb Temperature Range {deltaC}
  20.6,                                   ! Humidity Indicating Conditions at Maximum Dry-Bulb {BasedOnField A3}
  100272,                                 ! Barometric Pressure {Pa}
  4,                                      ! Wind Speed {m/s}
  210,                                    ! Wind Direction {deg}
  0,                                      ! Sky Clearness
  0,                                      ! Rain Indicator
  0,                                      ! Snow Indicator
  21,                                     ! Day of Month
  7,                                      ! Month
  SummerDesignDay,                        ! Day Type
  0,                                      ! Daylight Saving Time Indicator
  Wetbulb,                                ! Humidity Indicating Type
  ,                                       ! Humidity Indicating Day Schedule Name
  DefaultMultipliers,                     ! Dry-Bulb Temperature Range Modifier Type
  ,                                       ! Dry-Bulb Temperature Range Modifier Schedule Name
  ASHRAETau,                              ! Solar Model Indicator
  ,                                       ! Beam Solar Day Schedule Name
  ,                                       ! Diffuse Solar Day Schedule Name
  0.462,                                  ! ASHRAE Taub {dimensionless}
  2.003;                                  ! ASHRAE Taud {dimensionless}

OS:ComponentData,
  {abc8a59f-f2a4-4a9b-99ca-532a28473dc9}, ! Handle
  Component Data 1,                       ! Name
  {d03138c9-6b4a-4e9a-a054-5a298f314129}, ! UUID
  {92f47522-5ef1-4f19-9b34-c28db91b7d29}, ! Version UUID
  1366307865,                             ! Creation Timestamp
  1366307865,                             ! Version Timestamp
  {6667d7b7-06b2-4f87-b014-164799008700}; ! Name of Object 1

