
OS:Version,
  {c71e1ef4-06b2-4e7c-acbc-993c6050894f}, ! Handle
  0.9.3;                                  ! Version Identifier

OS:SizingPeriod:DesignDay,
  {b5adcf95-e166-4f89-b77c-f53355a6079f}, ! Handle
  Louisville Bowman Field Ann Htg 99.6% Condns DB, ! Name
  -13.9,                                  ! Maximum Dry-Bulb Temperature {C}
  0,                                      ! Daily Dry-Bulb Temperature Range {deltaC}
  -13.9,                                  ! Humidity Indicating Conditions at Maximum Dry-Bulb {BasedOnField A3}
  99358,                                  ! Barometric Pressure {Pa}
  3.6,                                    ! Wind Speed {m/s}
  290,                                    ! Wind Direction {deg}
  0,                                      ! Sky Clearness
  0,                                      ! Rain Indicator
  0,                                      ! Snow Indicator
  21,                                     ! Day of Month
  1,                                      ! Month
  WinterDesignDay,                        ! Day Type
  0,                                      ! Daylight Saving Time Indicator
  Wetbulb,                                ! Humidity Indicating Type
  ,                                       ! Humidity Indicating Day Schedule Name
  DefaultMultipliers,                     ! Dry-Bulb Temperature Range Modifier Type
  ,                                       ! Dry-Bulb Temperature Range Modifier Schedule Name
  ASHRAEClearSky;                         ! Solar Model Indicator

OS:ComponentData,
  {c83db4fd-31be-470c-a8ac-e6e1bd2485d9}, ! Handle
  Component Data 1,                       ! Name
  {dd52547a-bb17-4d4e-96df-0d74bb0a48e1}, ! UUID
  {515d669e-2174-4feb-aac2-7b43aa56c49c}, ! Version UUID
  1366307662,                             ! Creation Timestamp
  1366307662,                             ! Version Timestamp
  {b5adcf95-e166-4f89-b77c-f53355a6079f}; ! Name of Object 1

