
OS:Version,
  {7ba9b319-35f4-46df-9214-2eeae5e82845}, ! Handle
  0.9.3;                                  ! Version Identifier

OS:SizingPeriod:DesignDay,
  {cceb15a4-b265-4e94-b748-be2c90464b3f}, ! Handle
  LA_CROSSE Ann Clg 2% Condns Enth=>MDB,  ! Name
  28.4,                                   ! Maximum Dry-Bulb Temperature {C}
  11.1,                                   ! Daily Dry-Bulb Temperature Range {deltaC}
  70700,                                  ! Humidity Indicating Conditions at Maximum Dry-Bulb {BasedOnField A3}
  98886,                                  ! Barometric Pressure {Pa}
  5.4,                                    ! Wind Speed {m/s}
  180,                                    ! Wind Direction {deg}
  0,                                      ! Sky Clearness
  0,                                      ! Rain Indicator
  0,                                      ! Snow Indicator
  21,                                     ! Day of Month
  7,                                      ! Month
  SummerDesignDay,                        ! Day Type
  0,                                      ! Daylight Saving Time Indicator
  Enthalpy,                               ! Humidity Indicating Type
  ,                                       ! Humidity Indicating Day Schedule Name
  DefaultMultipliers,                     ! Dry-Bulb Temperature Range Modifier Type
  ,                                       ! Dry-Bulb Temperature Range Modifier Schedule Name
  ASHRAETau,                              ! Solar Model Indicator
  ,                                       ! Beam Solar Day Schedule Name
  ,                                       ! Diffuse Solar Day Schedule Name
  0.431,                                  ! ASHRAE Taub {dimensionless}
  2.126;                                  ! ASHRAE Taud {dimensionless}

OS:ComponentData,
  {47758954-9fed-4245-9352-3b817ad5ab83}, ! Handle
  Component Data 1,                       ! Name
  {ff4c2172-5b45-45d0-aa68-51148666ca2b}, ! UUID
  {fcfbfcd4-2bea-4722-9e6b-1822b99c3d3a}, ! Version UUID
  1366311504,                             ! Creation Timestamp
  1366311504,                             ! Version Timestamp
  {cceb15a4-b265-4e94-b748-be2c90464b3f}; ! Name of Object 1

