
OS:Version,
  {010c4ee9-3f64-4f67-b5d4-7a1ede0ecd35}, ! Handle
  0.9.3;                                  ! Version Identifier

OS:SizingPeriod:DesignDay,
  {dd9f19d2-3eec-474e-81d5-68b3011a4bf4}, ! Handle
  Duluth Ann Htg 99.6% Condns DB,         ! Name
  -28.6,                                  ! Maximum Dry-Bulb Temperature {C}
  0,                                      ! Daily Dry-Bulb Temperature Range {deltaC}
  -28.6,                                  ! Humidity Indicating Conditions at Maximum Dry-Bulb {BasedOnField A3}
  96242,                                  ! Barometric Pressure {Pa}
  4.6,                                    ! Wind Speed {m/s}
  310,                                    ! Wind Direction {deg}
  0,                                      ! Sky Clearness
  0,                                      ! Rain Indicator
  0,                                      ! Snow Indicator
  21,                                     ! Day of Month
  1,                                      ! Month
  WinterDesignDay,                        ! Day Type
  0,                                      ! Daylight Saving Time Indicator
  Wetbulb,                                ! Humidity Indicating Type
  ,                                       ! Humidity Indicating Day Schedule Name
  DefaultMultipliers,                     ! Dry-Bulb Temperature Range Modifier Type
  ,                                       ! Dry-Bulb Temperature Range Modifier Schedule Name
  ASHRAEClearSky;                         ! Solar Model Indicator

OS:ComponentData,
  {1c23306e-650e-47f5-ba46-00eff38a9582}, ! Handle
  Component Data 1,                       ! Name
  {9fc4dfa1-f7b5-415e-b74a-efb31605e4c8}, ! UUID
  {bf9874de-5511-48ed-8d39-90b5c5bae608}, ! Version UUID
  1366308201,                             ! Creation Timestamp
  1366308201,                             ! Version Timestamp
  {dd9f19d2-3eec-474e-81d5-68b3011a4bf4}; ! Name of Object 1

