
OS:Version,
  {52dc8c77-e277-4a73-b808-fc2d9934268e}, ! Handle
  0.9.3;                                  ! Version Identifier

OS:SizingPeriod:DesignDay,
  {22b311c8-b86c-49f6-8f83-1b56f323b9d5}, ! Handle
  Burlington Ann Clg 1% Condns DP=>MDB,   ! Name
  25.1,                                   ! Maximum Dry-Bulb Temperature {C}
  10.7,                                   ! Daily Dry-Bulb Temperature Range {deltaC}
  20.8,                                   ! Humidity Indicating Conditions at Maximum Dry-Bulb {BasedOnField A3}
  100082,                                 ! Barometric Pressure {Pa}
  4.5,                                    ! Wind Speed {m/s}
  170,                                    ! Wind Direction {deg}
  0,                                      ! Sky Clearness
  0,                                      ! Rain Indicator
  0,                                      ! Snow Indicator
  21,                                     ! Day of Month
  7,                                      ! Month
  SummerDesignDay,                        ! Day Type
  0,                                      ! Daylight Saving Time Indicator
  Dewpoint,                               ! Humidity Indicating Type
  ,                                       ! Humidity Indicating Day Schedule Name
  DefaultMultipliers,                     ! Dry-Bulb Temperature Range Modifier Type
  ,                                       ! Dry-Bulb Temperature Range Modifier Schedule Name
  ASHRAETau,                              ! Solar Model Indicator
  ,                                       ! Beam Solar Day Schedule Name
  ,                                       ! Diffuse Solar Day Schedule Name
  0.459,                                  ! ASHRAE Taub {dimensionless}
  2.002;                                  ! ASHRAE Taud {dimensionless}

OS:ComponentData,
  {f7c4f0bc-5da7-4c8e-be2a-4849914a6659}, ! Handle
  Component Data 1,                       ! Name
  {5232fe85-2417-4902-a05d-3a5990c5c8fa}, ! UUID
  {df975e2c-f71d-48af-ad44-ca554d371d85}, ! Version UUID
  1366311241,                             ! Creation Timestamp
  1366311241,                             ! Version Timestamp
  {22b311c8-b86c-49f6-8f83-1b56f323b9d5}; ! Name of Object 1

