
OS:Version,
  {4f012662-73cf-471c-8b4f-4c2c94c6d1bc}, ! Handle
  0.9.3;                                  ! Version Identifier

OS:SizingPeriod:DesignDay,
  {e64cbfcf-cbd7-4d52-b23d-1e52f8cc7888}, ! Handle
  La Junta Municipal Ap Ann Clg .4% Condns DP=>MDB, ! Name
  21.7,                                   ! Maximum Dry-Bulb Temperature {C}
  16.5,                                   ! Daily Dry-Bulb Temperature Range {deltaC}
  17.8,                                   ! Humidity Indicating Conditions at Maximum Dry-Bulb {BasedOnField A3}
  86853,                                  ! Barometric Pressure {Pa}
  4.9,                                    ! Wind Speed {m/s}
  140,                                    ! Wind Direction {deg}
  0,                                      ! Sky Clearness
  0,                                      ! Rain Indicator
  0,                                      ! Snow Indicator
  21,                                     ! Day of Month
  7,                                      ! Month
  SummerDesignDay,                        ! Day Type
  0,                                      ! Daylight Saving Time Indicator
  Dewpoint,                               ! Humidity Indicating Type
  ,                                       ! Humidity Indicating Day Schedule Name
  DefaultMultipliers,                     ! Dry-Bulb Temperature Range Modifier Type
  ,                                       ! Dry-Bulb Temperature Range Modifier Schedule Name
  ASHRAETau,                              ! Solar Model Indicator
  ,                                       ! Beam Solar Day Schedule Name
  ,                                       ! Diffuse Solar Day Schedule Name
  0.435,                                  ! ASHRAE Taub {dimensionless}
  1.974;                                  ! ASHRAE Taud {dimensionless}

OS:ComponentData,
  {0d3a3400-dc12-491e-b0b4-5b0defe47f0c}, ! Handle
  Component Data 1,                       ! Name
  {bdbb03eb-f106-433d-9f1e-13d0e70076a4}, ! UUID
  {c4c70379-89c8-4726-a9a4-44f22e3ac0f5}, ! Version UUID
  1366306714,                             ! Creation Timestamp
  1366306714,                             ! Version Timestamp
  {e64cbfcf-cbd7-4d52-b23d-1e52f8cc7888}; ! Name of Object 1

