
OS:Version,
  {ffb56165-e137-40ea-91bb-69aabd30ac24}, ! Handle
  0.9.3;                                  ! Version Identifier

OS:SizingPeriod:DesignDay,
  {bc2ab24b-b719-4ef8-b0de-9875a13064f7}, ! Handle
  Goldsboro Seymour Johnson Afb Ann Clg 1% Condns DP=>MDB, ! Name
  28,                                     ! Maximum Dry-Bulb Temperature {C}
  10,                                     ! Daily Dry-Bulb Temperature Range {deltaC}
  24.5,                                   ! Humidity Indicating Conditions at Maximum Dry-Bulb {BasedOnField A3}
  100929,                                 ! Barometric Pressure {Pa}
  3.5,                                    ! Wind Speed {m/s}
  230,                                    ! Wind Direction {deg}
  0,                                      ! Sky Clearness
  0,                                      ! Rain Indicator
  0,                                      ! Snow Indicator
  21,                                     ! Day of Month
  7,                                      ! Month
  SummerDesignDay,                        ! Day Type
  0,                                      ! Daylight Saving Time Indicator
  Dewpoint,                               ! Humidity Indicating Type
  ,                                       ! Humidity Indicating Day Schedule Name
  DefaultMultipliers,                     ! Dry-Bulb Temperature Range Modifier Type
  ,                                       ! Dry-Bulb Temperature Range Modifier Schedule Name
  ASHRAETau,                              ! Solar Model Indicator
  ,                                       ! Beam Solar Day Schedule Name
  ,                                       ! Diffuse Solar Day Schedule Name
  0.598,                                  ! ASHRAE Taub {dimensionless}
  1.681;                                  ! ASHRAE Taud {dimensionless}

OS:ComponentData,
  {c59b4dc2-f507-4350-b099-743135377001}, ! Handle
  Component Data 1,                       ! Name
  {380248c7-a6c9-482e-9ac1-03fa05a2ff17}, ! UUID
  {e879cc17-6a60-4f52-b680-7e568fc5f61c}, ! Version UUID
  1366308924,                             ! Creation Timestamp
  1366308924,                             ! Version Timestamp
  {bc2ab24b-b719-4ef8-b0de-9875a13064f7}; ! Name of Object 1

