
OS:Version,
  {15ce76bd-308c-4496-9ca6-9543750defbc}, ! Handle
  0.9.3;                                  ! Version Identifier

OS:SizingPeriod:DesignDay,
  {eafd83fa-dc8b-4926-94c9-67180f9bf46f}, ! Handle
  Butler Co   Awos Ann Clg 1% Condns Enth=>MDB, ! Name
  28.1,                                   ! Maximum Dry-Bulb Temperature {C}
  10.9,                                   ! Daily Dry-Bulb Temperature Range {deltaC}
  69200,                                  ! Humidity Indicating Conditions at Maximum Dry-Bulb {BasedOnField A3}
  96842,                                  ! Barometric Pressure {Pa}
  2.9,                                    ! Wind Speed {m/s}
  250,                                    ! Wind Direction {deg}
  0,                                      ! Sky Clearness
  0,                                      ! Rain Indicator
  0,                                      ! Snow Indicator
  21,                                     ! Day of Month
  7,                                      ! Month
  SummerDesignDay,                        ! Day Type
  0,                                      ! Daylight Saving Time Indicator
  Enthalpy,                               ! Humidity Indicating Type
  ,                                       ! Humidity Indicating Day Schedule Name
  DefaultMultipliers,                     ! Dry-Bulb Temperature Range Modifier Type
  ,                                       ! Dry-Bulb Temperature Range Modifier Schedule Name
  ASHRAETau,                              ! Solar Model Indicator
  ,                                       ! Beam Solar Day Schedule Name
  ,                                       ! Diffuse Solar Day Schedule Name
  0.469,                                  ! ASHRAE Taub {dimensionless}
  1.965;                                  ! ASHRAE Taud {dimensionless}

OS:ComponentData,
  {3787be6d-fcb8-43da-9dac-519e39411215}, ! Handle
  Component Data 1,                       ! Name
  {3fa131ea-3359-453d-84f2-f0a14035d1cc}, ! UUID
  {25d1df74-5c21-4cfe-9b29-dd9a0d82be05}, ! Version UUID
  1366310156,                             ! Creation Timestamp
  1366310156,                             ! Version Timestamp
  {eafd83fa-dc8b-4926-94c9-67180f9bf46f}; ! Name of Object 1

