
OS:Version,
  {4f8a577e-b3b0-41f2-b939-b7ada47d70e5}, ! Handle
  0.9.3;                                  ! Version Identifier

OS:SizingPeriod:DesignDay,
  {4d806d23-1449-4eb1-bc19-d701c8c02488}, ! Handle
  Eau Claire Ann Hum_n 99% Condns DP=>MCDB, ! Name
  -22.7,                                  ! Maximum Dry-Bulb Temperature {C}
  0,                                      ! Daily Dry-Bulb Temperature Range {deltaC}
  -27.7,                                  ! Humidity Indicating Conditions at Maximum Dry-Bulb {BasedOnField A3}
  98053,                                  ! Barometric Pressure {Pa}
  2.6,                                    ! Wind Speed {m/s}
  250,                                    ! Wind Direction {deg}
  0,                                      ! Sky Clearness
  0,                                      ! Rain Indicator
  0,                                      ! Snow Indicator
  21,                                     ! Day of Month
  1,                                      ! Month
  WinterDesignDay,                        ! Day Type
  0,                                      ! Daylight Saving Time Indicator
  Dewpoint,                               ! Humidity Indicating Type
  ,                                       ! Humidity Indicating Day Schedule Name
  DefaultMultipliers,                     ! Dry-Bulb Temperature Range Modifier Type
  ,                                       ! Dry-Bulb Temperature Range Modifier Schedule Name
  ASHRAEClearSky;                         ! Solar Model Indicator

