
OS:Version,
  {5b2db9d2-7c9c-455d-9114-19aab69de703}, ! Handle
  0.9.3;                                  ! Version Identifier

OS:SizingPeriod:DesignDay,
  {cff309f8-b92b-4a6d-990f-a879c3606f94}, ! Handle
  Chicago/Midway Ann Clg 1% Condns Enth=>MDB, ! Name
  29.7,                                   ! Maximum Dry-Bulb Temperature {C}
  8.8,                                    ! Daily Dry-Bulb Temperature Range {deltaC}
  75100,                                  ! Humidity Indicating Conditions at Maximum Dry-Bulb {BasedOnField A3}
  99099,                                  ! Barometric Pressure {Pa}
  5.6,                                    ! Wind Speed {m/s}
  220,                                    ! Wind Direction {deg}
  0,                                      ! Sky Clearness
  0,                                      ! Rain Indicator
  0,                                      ! Snow Indicator
  21,                                     ! Day of Month
  7,                                      ! Month
  SummerDesignDay,                        ! Day Type
  0,                                      ! Daylight Saving Time Indicator
  Enthalpy,                               ! Humidity Indicating Type
  ,                                       ! Humidity Indicating Day Schedule Name
  DefaultMultipliers,                     ! Dry-Bulb Temperature Range Modifier Type
  ,                                       ! Dry-Bulb Temperature Range Modifier Schedule Name
  ASHRAETau,                              ! Solar Model Indicator
  ,                                       ! Beam Solar Day Schedule Name
  ,                                       ! Diffuse Solar Day Schedule Name
  0.457,                                  ! ASHRAE Taub {dimensionless}
  2.043;                                  ! ASHRAE Taud {dimensionless}

OS:ComponentData,
  {3a9ccdd4-c213-4c9a-bc67-3f76a8123538}, ! Handle
  Component Data 1,                       ! Name
  {055022b9-be5c-47be-bc6d-6929ea1b7843}, ! UUID
  {e6033a6c-22d9-4e03-903f-95b34dbf9063}, ! Version UUID
  1366307340,                             ! Creation Timestamp
  1366307340,                             ! Version Timestamp
  {cff309f8-b92b-4a6d-990f-a879c3606f94}; ! Name of Object 1

