
OS:Version,
  {df488da9-d988-4322-ba88-ffb15b41e57e}, ! Handle
  0.9.3;                                  ! Version Identifier

OS:SizingPeriod:DesignDay,
  {44459021-4f82-4bf9-8bb7-52625810dec7}, ! Handle
  Kearney Muni  Awos Ann Clg 1% Condns WB=>MDB, ! Name
  30.5,                                   ! Maximum Dry-Bulb Temperature {C}
  12.2,                                   ! Daily Dry-Bulb Temperature Range {deltaC}
  23.7,                                   ! Humidity Indicating Conditions at Maximum Dry-Bulb {BasedOnField A3}
  93767,                                  ! Barometric Pressure {Pa}
  6.4,                                    ! Wind Speed {m/s}
  190,                                    ! Wind Direction {deg}
  0,                                      ! Sky Clearness
  0,                                      ! Rain Indicator
  0,                                      ! Snow Indicator
  21,                                     ! Day of Month
  7,                                      ! Month
  SummerDesignDay,                        ! Day Type
  0,                                      ! Daylight Saving Time Indicator
  Wetbulb,                                ! Humidity Indicating Type
  ,                                       ! Humidity Indicating Day Schedule Name
  DefaultMultipliers,                     ! Dry-Bulb Temperature Range Modifier Type
  ,                                       ! Dry-Bulb Temperature Range Modifier Schedule Name
  ASHRAETau,                              ! Solar Model Indicator
  ,                                       ! Beam Solar Day Schedule Name
  ,                                       ! Diffuse Solar Day Schedule Name
  0.404,                                  ! ASHRAE Taub {dimensionless}
  2.221;                                  ! ASHRAE Taud {dimensionless}

OS:ComponentData,
  {b599a804-f0cf-42f2-9c00-95be2f0e0fc2}, ! Handle
  Component Data 1,                       ! Name
  {2f487b67-118a-4da9-a689-a8daa0eece55}, ! UUID
  {5d0be7e0-b98b-42e6-922b-c54fa3fba77f}, ! Version UUID
  1366309135,                             ! Creation Timestamp
  1366309135,                             ! Version Timestamp
  {44459021-4f82-4bf9-8bb7-52625810dec7}; ! Name of Object 1

