
OS:Version,
  {91b8da53-5ede-4133-b261-c993201a7ca8}, ! Handle
  0.9.3;                                  ! Version Identifier

OS:SizingPeriod:DesignDay,
  {dd643c1a-506c-4b16-9d17-2217cdb6f60a}, ! Handle
  Des Moines Intl Ap Ann Clg 1% Condns DB=>MWB, ! Name
  32.3,                                   ! Maximum Dry-Bulb Temperature {C}
  10.1,                                   ! Daily Dry-Bulb Temperature Range {deltaC}
  23.9,                                   ! Humidity Indicating Conditions at Maximum Dry-Bulb {BasedOnField A3}
  97866,                                  ! Barometric Pressure {Pa}
  5.4,                                    ! Wind Speed {m/s}
  180,                                    ! Wind Direction {deg}
  0,                                      ! Sky Clearness
  0,                                      ! Rain Indicator
  0,                                      ! Snow Indicator
  21,                                     ! Day of Month
  7,                                      ! Month
  SummerDesignDay,                        ! Day Type
  0,                                      ! Daylight Saving Time Indicator
  Wetbulb,                                ! Humidity Indicating Type
  ,                                       ! Humidity Indicating Day Schedule Name
  DefaultMultipliers,                     ! Dry-Bulb Temperature Range Modifier Type
  ,                                       ! Dry-Bulb Temperature Range Modifier Schedule Name
  ASHRAETau,                              ! Solar Model Indicator
  ,                                       ! Beam Solar Day Schedule Name
  ,                                       ! Diffuse Solar Day Schedule Name
  0.425,                                  ! ASHRAE Taub {dimensionless}
  2.17;                                   ! ASHRAE Taud {dimensionless}

OS:ComponentData,
  {95bc9cb9-754a-4589-88dd-567da54cb3fc}, ! Handle
  Component Data 1,                       ! Name
  {c8d239f0-8e23-4080-bda2-195800f14493}, ! UUID
  {268eae21-a7a1-40b3-8c9a-1609798d047e}, ! Version UUID
  1366307181,                             ! Creation Timestamp
  1366307181,                             ! Version Timestamp
  {dd643c1a-506c-4b16-9d17-2217cdb6f60a}; ! Name of Object 1

