
OS:Version,
  {fd09783f-4494-4d28-85bd-14bad3460853}, ! Handle
  0.9.3;                                  ! Version Identifier

OS:SizingPeriod:DesignDay,
  {cfa6cbe6-a969-4e91-985f-e6beb85718e7}, ! Handle
  Bettles Field Ann Clg 1% Condns WB=>MDB, ! Name
  22.3,                                   ! Maximum Dry-Bulb Temperature {C}
  10.6,                                   ! Daily Dry-Bulb Temperature Range {deltaC}
  15.8,                                   ! Humidity Indicating Conditions at Maximum Dry-Bulb {BasedOnField A3}
  98992,                                  ! Barometric Pressure {Pa}
  3.3,                                    ! Wind Speed {m/s}
  220,                                    ! Wind Direction {deg}
  0,                                      ! Sky Clearness
  0,                                      ! Rain Indicator
  0,                                      ! Snow Indicator
  21,                                     ! Day of Month
  7,                                      ! Month
  SummerDesignDay,                        ! Day Type
  0,                                      ! Daylight Saving Time Indicator
  Wetbulb,                                ! Humidity Indicating Type
  ,                                       ! Humidity Indicating Day Schedule Name
  DefaultMultipliers,                     ! Dry-Bulb Temperature Range Modifier Type
  ,                                       ! Dry-Bulb Temperature Range Modifier Schedule Name
  ASHRAETau,                              ! Solar Model Indicator
  ,                                       ! Beam Solar Day Schedule Name
  ,                                       ! Diffuse Solar Day Schedule Name
  0.389,                                  ! ASHRAE Taub {dimensionless}
  2.131;                                  ! ASHRAE Taud {dimensionless}

OS:ComponentData,
  {c0ac1144-effe-40f8-9971-e3f0900542ed}, ! Handle
  Component Data 1,                       ! Name
  {72a514e7-4fbf-4caa-8a48-c452cd91c8d9}, ! UUID
  {657b3e8b-5402-4b0a-94a7-7b4e73ac035d}, ! Version UUID
  1366304767,                             ! Creation Timestamp
  1366304767,                             ! Version Timestamp
  {cfa6cbe6-a969-4e91-985f-e6beb85718e7}; ! Name of Object 1

