
OS:Version,
  {caecba19-d366-4112-94ab-d455c8b14b41}, ! Handle
  0.9.3;                                  ! Version Identifier

OS:SizingPeriod:DesignDay,
  {ffeefbf6-7fce-4070-bbfe-40b95f74e716}, ! Handle
  Flint Bishop Intl Arpt Ann Clg 1% Condns Enth=>MDB, ! Name
  28.4,                                   ! Maximum Dry-Bulb Temperature {C}
  11.7,                                   ! Daily Dry-Bulb Temperature Range {deltaC}
  71800,                                  ! Humidity Indicating Conditions at Maximum Dry-Bulb {BasedOnField A3}
  98545,                                  ! Barometric Pressure {Pa}
  5.3,                                    ! Wind Speed {m/s}
  250,                                    ! Wind Direction {deg}
  0,                                      ! Sky Clearness
  0,                                      ! Rain Indicator
  0,                                      ! Snow Indicator
  21,                                     ! Day of Month
  7,                                      ! Month
  SummerDesignDay,                        ! Day Type
  0,                                      ! Daylight Saving Time Indicator
  Enthalpy,                               ! Humidity Indicating Type
  ,                                       ! Humidity Indicating Day Schedule Name
  DefaultMultipliers,                     ! Dry-Bulb Temperature Range Modifier Type
  ,                                       ! Dry-Bulb Temperature Range Modifier Schedule Name
  ASHRAETau,                              ! Solar Model Indicator
  ,                                       ! Beam Solar Day Schedule Name
  ,                                       ! Diffuse Solar Day Schedule Name
  0.449,                                  ! ASHRAE Taub {dimensionless}
  2.044;                                  ! ASHRAE Taud {dimensionless}

OS:ComponentData,
  {211205ef-895d-4288-b317-8edfa5b7468e}, ! Handle
  Component Data 1,                       ! Name
  {74ab608c-3d29-4b22-b49d-52a0386e5d4b}, ! UUID
  {2073b7ac-d31e-4fdf-9741-c26e8794500d}, ! Version UUID
  1366308000,                             ! Creation Timestamp
  1366308000,                             ! Version Timestamp
  {ffeefbf6-7fce-4070-bbfe-40b95f74e716}; ! Name of Object 1

