
OS:Version,
  {9a15f7c4-3233-4b0e-93f3-b4277c613fca}, ! Handle
  0.9.3;                                  ! Version Identifier

OS:SizingPeriod:DesignDay,
  {49862d34-e41d-4bb8-8df3-eb7581ef19d0}, ! Handle
  Fort Dodge  Awos Ann Clg .4% Condns WB=>MDB, ! Name
  31,                                     ! Maximum Dry-Bulb Temperature {C}
  10.7,                                   ! Daily Dry-Bulb Temperature Range {deltaC}
  25.4,                                   ! Humidity Indicating Conditions at Maximum Dry-Bulb {BasedOnField A3}
  97132,                                  ! Barometric Pressure {Pa}
  5.4,                                    ! Wind Speed {m/s}
  200,                                    ! Wind Direction {deg}
  0,                                      ! Sky Clearness
  0,                                      ! Rain Indicator
  0,                                      ! Snow Indicator
  21,                                     ! Day of Month
  7,                                      ! Month
  SummerDesignDay,                        ! Day Type
  0,                                      ! Daylight Saving Time Indicator
  Wetbulb,                                ! Humidity Indicating Type
  ,                                       ! Humidity Indicating Day Schedule Name
  DefaultMultipliers,                     ! Dry-Bulb Temperature Range Modifier Type
  ,                                       ! Dry-Bulb Temperature Range Modifier Schedule Name
  ASHRAETau,                              ! Solar Model Indicator
  ,                                       ! Beam Solar Day Schedule Name
  ,                                       ! Diffuse Solar Day Schedule Name
  0.409,                                  ! ASHRAE Taub {dimensionless}
  2.217;                                  ! ASHRAE Taud {dimensionless}

OS:ComponentData,
  {e44e9cee-0894-4c1f-8941-87d935a1a437}, ! Handle
  Component Data 1,                       ! Name
  {2655884f-54da-4a52-8e59-3924e3291f1b}, ! UUID
  {cf87bb8d-e94b-41cf-b1e6-cea8ce44911f}, ! Version UUID
  1366307197,                             ! Creation Timestamp
  1366307197,                             ! Version Timestamp
  {49862d34-e41d-4bb8-8df3-eb7581ef19d0}; ! Name of Object 1

