
OS:Version,
  {83304fdb-f478-4009-868d-465794b3fee8}, ! Handle
  0.9.3;                                  ! Version Identifier

OS:SizingPeriod:DesignDay,
  {831b019f-fec9-41df-acb8-f5aa0a3883a7}, ! Handle
  Dillon Ann Clg 1% Condns WB=>MDB,       ! Name
  27,                                     ! Maximum Dry-Bulb Temperature {C}
  17.9,                                   ! Daily Dry-Bulb Temperature Range {deltaC}
  16.4,                                   ! Humidity Indicating Conditions at Maximum Dry-Bulb {BasedOnField A3}
  83554,                                  ! Barometric Pressure {Pa}
  4.1,                                    ! Wind Speed {m/s}
  350,                                    ! Wind Direction {deg}
  0,                                      ! Sky Clearness
  0,                                      ! Rain Indicator
  0,                                      ! Snow Indicator
  21,                                     ! Day of Month
  7,                                      ! Month
  SummerDesignDay,                        ! Day Type
  0,                                      ! Daylight Saving Time Indicator
  Wetbulb,                                ! Humidity Indicating Type
  ,                                       ! Humidity Indicating Day Schedule Name
  DefaultMultipliers,                     ! Dry-Bulb Temperature Range Modifier Type
  ,                                       ! Dry-Bulb Temperature Range Modifier Schedule Name
  ASHRAETau,                              ! Solar Model Indicator
  ,                                       ! Beam Solar Day Schedule Name
  ,                                       ! Diffuse Solar Day Schedule Name
  0.377,                                  ! ASHRAE Taub {dimensionless}
  2.177;                                  ! ASHRAE Taud {dimensionless}

OS:ComponentData,
  {b2552d83-5402-4f2d-a687-61322296b212}, ! Handle
  Component Data 1,                       ! Name
  {32fcf3c8-1426-4f3a-bfd3-24863440c272}, ! UUID
  {0bd367b6-4651-4366-b127-166bcfc77eae}, ! Version UUID
  1366308750,                             ! Creation Timestamp
  1366308750,                             ! Version Timestamp
  {831b019f-fec9-41df-acb8-f5aa0a3883a7}; ! Name of Object 1

