
OS:Version,
  {21cf4f06-8010-4a1a-81f6-d9cd5e6b4b6b}, ! Handle
  0.9.3;                                  ! Version Identifier

OS:SizingPeriod:DesignDay,
  {bbb00fda-7147-4958-9afd-e06a945fc718}, ! Handle
  HARTFORD Ann Clg 2% Condns WB=>MDB,     ! Name
  27.1,                                   ! Maximum Dry-Bulb Temperature {C}
  9.9,                                    ! Daily Dry-Bulb Temperature Range {deltaC}
  23.3,                                   ! Humidity Indicating Conditions at Maximum Dry-Bulb {BasedOnField A3}
  100666,                                 ! Barometric Pressure {Pa}
  4.6,                                    ! Wind Speed {m/s}
  260,                                    ! Wind Direction {deg}
  0,                                      ! Sky Clearness
  0,                                      ! Rain Indicator
  0,                                      ! Snow Indicator
  21,                                     ! Day of Month
  7,                                      ! Month
  SummerDesignDay,                        ! Day Type
  0,                                      ! Daylight Saving Time Indicator
  Wetbulb,                                ! Humidity Indicating Type
  ,                                       ! Humidity Indicating Day Schedule Name
  DefaultMultipliers,                     ! Dry-Bulb Temperature Range Modifier Type
  ,                                       ! Dry-Bulb Temperature Range Modifier Schedule Name
  ASHRAETau,                              ! Solar Model Indicator
  ,                                       ! Beam Solar Day Schedule Name
  ,                                       ! Diffuse Solar Day Schedule Name
  0.496,                                  ! ASHRAE Taub {dimensionless}
  1.916;                                  ! ASHRAE Taud {dimensionless}

OS:ComponentData,
  {bd4cc661-7a9e-4b3a-825a-5592a921ff7b}, ! Handle
  Component Data 1,                       ! Name
  {199dd0e2-8034-49de-8636-a9c7d41e1476}, ! UUID
  {1bb00959-a995-4787-a10c-9374d7d60e64}, ! Version UUID
  1366306763,                             ! Creation Timestamp
  1366306763,                             ! Version Timestamp
  {bbb00fda-7147-4958-9afd-e06a945fc718}; ! Name of Object 1

