
OS:Version,
  {b682e155-292e-43d4-b3ab-b849f16902d0}, ! Handle
  0.9.3;                                  ! Version Identifier

OS:SizingPeriod:DesignDay,
  {4ec3381a-dd5a-47fc-92a6-89e4d88dd4a8}, ! Handle
  Denver-Stapleton Ann Hum_n 99.6% Condns DP=>MCDB, ! Name
  -17.1,                                  ! Maximum Dry-Bulb Temperature {C}
  0,                                      ! Daily Dry-Bulb Temperature Range {deltaC}
  -24.1,                                  ! Humidity Indicating Conditions at Maximum Dry-Bulb {BasedOnField A3}
  83411,                                  ! Barometric Pressure {Pa}
  2.3,                                    ! Wind Speed {m/s}
  180,                                    ! Wind Direction {deg}
  0,                                      ! Sky Clearness
  0,                                      ! Rain Indicator
  0,                                      ! Snow Indicator
  21,                                     ! Day of Month
  12,                                     ! Month
  WinterDesignDay,                        ! Day Type
  0,                                      ! Daylight Saving Time Indicator
  Dewpoint,                               ! Humidity Indicating Type
  ,                                       ! Humidity Indicating Day Schedule Name
  DefaultMultipliers,                     ! Dry-Bulb Temperature Range Modifier Type
  ,                                       ! Dry-Bulb Temperature Range Modifier Schedule Name
  ASHRAEClearSky;                         ! Solar Model Indicator

OS:ComponentData,
  {e5a487a7-8358-4271-9f59-c893c282885a}, ! Handle
  Component Data 1,                       ! Name
  {9aa90954-dc54-4958-aa9f-4231c8d306f3}, ! UUID
  {8468638b-691e-4589-b923-c8ad0fb4a4c9}, ! Version UUID
  1366306673,                             ! Creation Timestamp
  1366306673,                             ! Version Timestamp
  {4ec3381a-dd5a-47fc-92a6-89e4d88dd4a8}; ! Name of Object 1

