
OS:Version,
  {1a1964c4-bffc-4b81-b3f7-81252e897c1d}, ! Handle
  0.9.3;                                  ! Version Identifier

OS:SizingPeriod:DesignDay,
  {685b3fd6-f680-43ae-84ef-f36ebd24e1fb}, ! Handle
  KNOXVILLE Ann Htg Wind 99.6% Condns WS=>MCDB, ! Name
  12.6,                                   ! Maximum Dry-Bulb Temperature {C}
  0,                                      ! Daily Dry-Bulb Temperature Range {deltaC}
  12.6,                                   ! Humidity Indicating Conditions at Maximum Dry-Bulb {BasedOnField A3}
  97784,                                  ! Barometric Pressure {Pa}
  11.1,                                   ! Wind Speed {m/s}
  20,                                     ! Wind Direction {deg}
  0,                                      ! Sky Clearness
  0,                                      ! Rain Indicator
  0,                                      ! Snow Indicator
  21,                                     ! Day of Month
  1,                                      ! Month
  WinterDesignDay,                        ! Day Type
  0,                                      ! Daylight Saving Time Indicator
  Wetbulb,                                ! Humidity Indicating Type
  ,                                       ! Humidity Indicating Day Schedule Name
  DefaultMultipliers,                     ! Dry-Bulb Temperature Range Modifier Type
  ,                                       ! Dry-Bulb Temperature Range Modifier Schedule Name
  ASHRAEClearSky;                         ! Solar Model Indicator

OS:ComponentData,
  {d8313f3f-ad78-463d-8c5c-e1c49b20507d}, ! Handle
  Component Data 1,                       ! Name
  {636e5586-99a7-4bb2-a4c0-c33430c68cb7}, ! UUID
  {b87a75ea-392f-4ea9-91f6-8d361b2d5c55}, ! Version UUID
  1366310516,                             ! Creation Timestamp
  1366310516,                             ! Version Timestamp
  {685b3fd6-f680-43ae-84ef-f36ebd24e1fb}; ! Name of Object 1

