
OS:Version,
  {342a4396-93cd-44dd-8839-767d3cc04b9f}, ! Handle
  0.9.3;                                  ! Version Identifier

OS:SizingPeriod:DesignDay,
  {b59862fc-6dc2-4c9c-8753-ddc2f00934de}, ! Handle
  Cloquet  Awos Ann Clg 1% Condns WB=>MDB, ! Name
  26.1,                                   ! Maximum Dry-Bulb Temperature {C}
  11.5,                                   ! Daily Dry-Bulb Temperature Range {deltaC}
  22.4,                                   ! Humidity Indicating Conditions at Maximum Dry-Bulb {BasedOnField A3}
  96727,                                  ! Barometric Pressure {Pa}
  4.2,                                    ! Wind Speed {m/s}
  200,                                    ! Wind Direction {deg}
  0,                                      ! Sky Clearness
  0,                                      ! Rain Indicator
  0,                                      ! Snow Indicator
  21,                                     ! Day of Month
  7,                                      ! Month
  SummerDesignDay,                        ! Day Type
  0,                                      ! Daylight Saving Time Indicator
  Wetbulb,                                ! Humidity Indicating Type
  ,                                       ! Humidity Indicating Day Schedule Name
  DefaultMultipliers,                     ! Dry-Bulb Temperature Range Modifier Type
  ,                                       ! Dry-Bulb Temperature Range Modifier Schedule Name
  ASHRAETau,                              ! Solar Model Indicator
  ,                                       ! Beam Solar Day Schedule Name
  ,                                       ! Diffuse Solar Day Schedule Name
  0.399,                                  ! ASHRAE Taub {dimensionless}
  2.211;                                  ! ASHRAE Taud {dimensionless}

OS:ComponentData,
  {32f8a24b-fe11-45ee-89b0-c0df090efceb}, ! Handle
  Component Data 1,                       ! Name
  {adc45b96-9cbc-43fd-a99d-d79f6a8fe352}, ! UUID
  {7f6d7974-f54c-43bc-b230-562d259695a3}, ! Version UUID
  1366308180,                             ! Creation Timestamp
  1366308180,                             ! Version Timestamp
  {b59862fc-6dc2-4c9c-8753-ddc2f00934de}; ! Name of Object 1

