
OS:Version,
  {599c3eaf-b17c-4069-b38c-590cb03539ee}, ! Handle
  0.9.3;                                  ! Version Identifier

OS:SizingPeriod:DesignDay,
  {62672c20-3621-4722-9ac7-350b819becb6}, ! Handle
  El Toro MCAS Ann Htg 99.6% Condns DB,   ! Name
  4.6,                                    ! Maximum Dry-Bulb Temperature {C}
  0,                                      ! Daily Dry-Bulb Temperature Range {deltaC}
  4.6,                                    ! Humidity Indicating Conditions at Maximum Dry-Bulb {BasedOnField A3}
  99939,                                  ! Barometric Pressure {Pa}
  1.4,                                    ! Wind Speed {m/s}
  90,                                     ! Wind Direction {deg}
  0,                                      ! Sky Clearness
  0,                                      ! Rain Indicator
  0,                                      ! Snow Indicator
  21,                                     ! Day of Month
  12,                                     ! Month
  WinterDesignDay,                        ! Day Type
  0,                                      ! Daylight Saving Time Indicator
  Wetbulb,                                ! Humidity Indicating Type
  ,                                       ! Humidity Indicating Day Schedule Name
  DefaultMultipliers,                     ! Dry-Bulb Temperature Range Modifier Type
  ,                                       ! Dry-Bulb Temperature Range Modifier Schedule Name
  ASHRAEClearSky;                         ! Solar Model Indicator

OS:ComponentData,
  {628c6bb3-e97b-4f09-a76c-2093fce8af53}, ! Handle
  Component Data 1,                       ! Name
  {9266f611-557a-40f6-a147-38002584f462}, ! UUID
  {5ff814c4-63af-4ccb-8ac5-551a06493c03}, ! Version UUID
  1366306422,                             ! Creation Timestamp
  1366306422,                             ! Version Timestamp
  {62672c20-3621-4722-9ac7-350b819becb6}; ! Name of Object 1

