
OS:Version,
  {84f65896-5554-4812-8389-71e68188780f}, ! Handle
  0.9.3;                                  ! Version Identifier

OS:SizingPeriod:DesignDay,
  {c74b9336-56bc-44fb-9095-afe434bd5bf6}, ! Handle
  HURON Ann Htg 99.6% Condns DB,          ! Name
  -26.1,                                  ! Maximum Dry-Bulb Temperature {C}
  0,                                      ! Daily Dry-Bulb Temperature Range {deltaC}
  -26.1,                                  ! Humidity Indicating Conditions at Maximum Dry-Bulb {BasedOnField A3}
  96692,                                  ! Barometric Pressure {Pa}
  4.1,                                    ! Wind Speed {m/s}
  320,                                    ! Wind Direction {deg}
  0,                                      ! Sky Clearness
  0,                                      ! Rain Indicator
  0,                                      ! Snow Indicator
  21,                                     ! Day of Month
  1,                                      ! Month
  WinterDesignDay,                        ! Day Type
  0,                                      ! Daylight Saving Time Indicator
  Wetbulb,                                ! Humidity Indicating Type
  ,                                       ! Humidity Indicating Day Schedule Name
  DefaultMultipliers,                     ! Dry-Bulb Temperature Range Modifier Type
  ,                                       ! Dry-Bulb Temperature Range Modifier Schedule Name
  ASHRAEClearSky;                         ! Solar Model Indicator

OS:ComponentData,
  {6ed70ea5-1b34-43e6-8b4a-6ca8b59f94d3}, ! Handle
  Component Data 1,                       ! Name
  {e9ff8fc7-7770-4c19-b9b8-b56c51650ef1}, ! UUID
  {f7fc1908-7f96-4bf8-b050-5090e6a8d34e}, ! Version UUID
  1366310398,                             ! Creation Timestamp
  1366310398,                             ! Version Timestamp
  {c74b9336-56bc-44fb-9095-afe434bd5bf6}; ! Name of Object 1

