
OS:Version,
  {2798cabf-9329-45a6-9b94-4a1420ae3da0}, ! Handle
  0.9.3;                                  ! Version Identifier

OS:SizingPeriod:DesignDay,
  {c6f14846-2ce0-4948-8072-26f030ced1d8}, ! Handle
  Hayward Air Term Ann Clg .4% Condns DP=>MDB, ! Name
  24,                                     ! Maximum Dry-Bulb Temperature {C}
  9.3,                                    ! Daily Dry-Bulb Temperature Range {deltaC}
  17.2,                                   ! Humidity Indicating Conditions at Maximum Dry-Bulb {BasedOnField A3}
  101157,                                 ! Barometric Pressure {Pa}
  4.9,                                    ! Wind Speed {m/s}
  290,                                    ! Wind Direction {deg}
  0,                                      ! Sky Clearness
  0,                                      ! Rain Indicator
  0,                                      ! Snow Indicator
  21,                                     ! Day of Month
  9,                                      ! Month
  SummerDesignDay,                        ! Day Type
  0,                                      ! Daylight Saving Time Indicator
  Dewpoint,                               ! Humidity Indicating Type
  ,                                       ! Humidity Indicating Day Schedule Name
  DefaultMultipliers,                     ! Dry-Bulb Temperature Range Modifier Type
  ,                                       ! Dry-Bulb Temperature Range Modifier Schedule Name
  ASHRAETau,                              ! Solar Model Indicator
  ,                                       ! Beam Solar Day Schedule Name
  ,                                       ! Diffuse Solar Day Schedule Name
  0.356,                                  ! ASHRAE Taub {dimensionless}
  2.494;                                  ! ASHRAE Taud {dimensionless}

OS:ComponentData,
  {5d7fe0a1-6f80-4f5d-8b85-3e866b8a782e}, ! Handle
  Component Data 1,                       ! Name
  {71dea98b-05fb-4e09-9e24-5bf39bbb426e}, ! UUID
  {a8e065b2-76b4-488c-b70c-9e5a6ccf2190}, ! Version UUID
  1366306449,                             ! Creation Timestamp
  1366306449,                             ! Version Timestamp
  {c6f14846-2ce0-4948-8072-26f030ced1d8}; ! Name of Object 1

