
OS:Version,
  {93751c97-1f21-421e-a6ab-fc0446c1bb9c}, ! Handle
  0.9.3;                                  ! Version Identifier

OS:SizingPeriod:DesignDay,
  {5ab1fba2-7aa8-4f72-9744-c1e342b67996}, ! Handle
  Baton Rouge Ann Htg 99.6% Condns DB,    ! Name
  -2.5,                                   ! Maximum Dry-Bulb Temperature {C}
  0,                                      ! Daily Dry-Bulb Temperature Range {deltaC}
  -2.5,                                   ! Humidity Indicating Conditions at Maximum Dry-Bulb {BasedOnField A3}
  101073,                                 ! Barometric Pressure {Pa}
  2.2,                                    ! Wind Speed {m/s}
  0,                                      ! Wind Direction {deg}
  0,                                      ! Sky Clearness
  0,                                      ! Rain Indicator
  0,                                      ! Snow Indicator
  21,                                     ! Day of Month
  1,                                      ! Month
  WinterDesignDay,                        ! Day Type
  0,                                      ! Daylight Saving Time Indicator
  Wetbulb,                                ! Humidity Indicating Type
  ,                                       ! Humidity Indicating Day Schedule Name
  DefaultMultipliers,                     ! Dry-Bulb Temperature Range Modifier Type
  ,                                       ! Dry-Bulb Temperature Range Modifier Schedule Name
  ASHRAEClearSky;                         ! Solar Model Indicator

OS:ComponentData,
  {a7a29049-9a51-4290-a47b-1b721020df70}, ! Handle
  Component Data 1,                       ! Name
  {d64df1ec-ca6a-4c0c-b50d-cbc3e2c4f785}, ! UUID
  {0094389e-d51d-4e6e-b549-8337094b5a98}, ! Version UUID
  1366307703,                             ! Creation Timestamp
  1366307703,                             ! Version Timestamp
  {5ab1fba2-7aa8-4f72-9744-c1e342b67996}; ! Name of Object 1

