
OS:Version,
  {98ce1f01-0392-47f7-92c7-0c42d51cdec7}, ! Handle
  0.9.3;                                  ! Version Identifier

OS:SizingPeriod:DesignDay,
  {8fd673a6-ff3f-4e49-990b-6d6c15eaff38}, ! Handle
  Hill City Municipal Ap Ann Clg .4% Condns DP=>MDB, ! Name
  28.4,                                   ! Maximum Dry-Bulb Temperature {C}
  14.5,                                   ! Daily Dry-Bulb Temperature Range {deltaC}
  22.4,                                   ! Humidity Indicating Conditions at Maximum Dry-Bulb {BasedOnField A3}
  93565,                                  ! Barometric Pressure {Pa}
  6.5,                                    ! Wind Speed {m/s}
  180,                                    ! Wind Direction {deg}
  0,                                      ! Sky Clearness
  0,                                      ! Rain Indicator
  0,                                      ! Snow Indicator
  21,                                     ! Day of Month
  7,                                      ! Month
  SummerDesignDay,                        ! Day Type
  0,                                      ! Daylight Saving Time Indicator
  Dewpoint,                               ! Humidity Indicating Type
  ,                                       ! Humidity Indicating Day Schedule Name
  DefaultMultipliers,                     ! Dry-Bulb Temperature Range Modifier Type
  ,                                       ! Dry-Bulb Temperature Range Modifier Schedule Name
  ASHRAETau,                              ! Solar Model Indicator
  ,                                       ! Beam Solar Day Schedule Name
  ,                                       ! Diffuse Solar Day Schedule Name
  0.439,                                  ! ASHRAE Taub {dimensionless}
  2.059;                                  ! ASHRAE Taud {dimensionless}

OS:ComponentData,
  {4b1a33c2-d71e-462c-861f-5ff77f2dd058}, ! Handle
  Component Data 1,                       ! Name
  {467229ff-e0f8-4271-8856-c68f49916937}, ! UUID
  {5b4c35da-dc27-43e9-b170-84bbe97d113f}, ! Version UUID
  1366307550,                             ! Creation Timestamp
  1366307550,                             ! Version Timestamp
  {8fd673a6-ff3f-4e49-990b-6d6c15eaff38}; ! Name of Object 1

