
OS:Version,
  {9a368224-1168-4b03-a144-ed35953bafce}, ! Handle
  0.9.3;                                  ! Version Identifier

OS:SizingPeriod:DesignDay,
  {6801441a-13b9-49ba-9f5e-3dcaebb33e87}, ! Handle
  Aurora Municipal Ann Htg 99% Condns DB, ! Name
  -17,                                    ! Maximum Dry-Bulb Temperature {C}
  0,                                      ! Daily Dry-Bulb Temperature Range {deltaC}
  -17,                                    ! Humidity Indicating Conditions at Maximum Dry-Bulb {BasedOnField A3}
  98769,                                  ! Barometric Pressure {Pa}
  3.6,                                    ! Wind Speed {m/s}
  290,                                    ! Wind Direction {deg}
  0,                                      ! Sky Clearness
  0,                                      ! Rain Indicator
  0,                                      ! Snow Indicator
  21,                                     ! Day of Month
  1,                                      ! Month
  WinterDesignDay,                        ! Day Type
  0,                                      ! Daylight Saving Time Indicator
  Wetbulb,                                ! Humidity Indicating Type
  ,                                       ! Humidity Indicating Day Schedule Name
  DefaultMultipliers,                     ! Dry-Bulb Temperature Range Modifier Type
  ,                                       ! Dry-Bulb Temperature Range Modifier Schedule Name
  ASHRAEClearSky;                         ! Solar Model Indicator

OS:ComponentData,
  {d7be7b42-ad9b-4a88-a983-a5fe29aea091}, ! Handle
  Component Data 1,                       ! Name
  {653548ee-9cfb-4502-a4eb-1da07d1d8aa8}, ! UUID
  {bcb4face-1bb9-4442-b964-29fd0a657a19}, ! Version UUID
  1366307318,                             ! Creation Timestamp
  1366307318,                             ! Version Timestamp
  {6801441a-13b9-49ba-9f5e-3dcaebb33e87}; ! Name of Object 1

