
OS:Version,
  {281f9ee4-91c8-4a90-993f-3aaca1f89498}, ! Handle
  0.9.3;                                  ! Version Identifier

OS:SizingPeriod:DesignDay,
  {94bddcfd-4baa-4318-be89-c7b8b81b8fe1}, ! Handle
  Bozeman Gallatin Field Ann Clg .4% Condns DP=>MDB, ! Name
  20.9,                                   ! Maximum Dry-Bulb Temperature {C}
  18.3,                                   ! Daily Dry-Bulb Temperature Range {deltaC}
  14.8,                                   ! Humidity Indicating Conditions at Maximum Dry-Bulb {BasedOnField A3}
  86135,                                  ! Barometric Pressure {Pa}
  3.8,                                    ! Wind Speed {m/s}
  0,                                      ! Wind Direction {deg}
  0,                                      ! Sky Clearness
  0,                                      ! Rain Indicator
  0,                                      ! Snow Indicator
  21,                                     ! Day of Month
  7,                                      ! Month
  SummerDesignDay,                        ! Day Type
  0,                                      ! Daylight Saving Time Indicator
  Dewpoint,                               ! Humidity Indicating Type
  ,                                       ! Humidity Indicating Day Schedule Name
  DefaultMultipliers,                     ! Dry-Bulb Temperature Range Modifier Type
  ,                                       ! Dry-Bulb Temperature Range Modifier Schedule Name
  ASHRAETau,                              ! Solar Model Indicator
  ,                                       ! Beam Solar Day Schedule Name
  ,                                       ! Diffuse Solar Day Schedule Name
  0.384,                                  ! ASHRAE Taub {dimensionless}
  2.199;                                  ! ASHRAE Taud {dimensionless}

OS:ComponentData,
  {1185bf80-2d59-4b18-80f6-7f0b721b2cc7}, ! Handle
  Component Data 1,                       ! Name
  {c9b6a638-ca9a-470e-85a3-762d5fa08a81}, ! UUID
  {50443519-4c8d-4e65-9260-88f3bcec6b17}, ! Version UUID
  1366308719,                             ! Creation Timestamp
  1366308719,                             ! Version Timestamp
  {94bddcfd-4baa-4318-be89-c7b8b81b8fe1}; ! Name of Object 1

