
OS:Version,
  {e1b88f45-bc37-400a-823f-e60bb90b2d88}, ! Handle
  0.9.3;                                  ! Version Identifier

OS:SizingPeriod:DesignDay,
  {44f03e19-432c-489c-8ffd-d2572b638a39}, ! Handle
  Columbus Afb Ann Clg 1% Condns Enth=>MDB, ! Name
  31.6,                                   ! Maximum Dry-Bulb Temperature {C}
  10.8,                                   ! Daily Dry-Bulb Temperature Range {deltaC}
  81200,                                  ! Humidity Indicating Conditions at Maximum Dry-Bulb {BasedOnField A3}
  100511,                                 ! Barometric Pressure {Pa}
  3.1,                                    ! Wind Speed {m/s}
  340,                                    ! Wind Direction {deg}
  0,                                      ! Sky Clearness
  0,                                      ! Rain Indicator
  0,                                      ! Snow Indicator
  21,                                     ! Day of Month
  7,                                      ! Month
  SummerDesignDay,                        ! Day Type
  0,                                      ! Daylight Saving Time Indicator
  Enthalpy,                               ! Humidity Indicating Type
  ,                                       ! Humidity Indicating Day Schedule Name
  DefaultMultipliers,                     ! Dry-Bulb Temperature Range Modifier Type
  ,                                       ! Dry-Bulb Temperature Range Modifier Schedule Name
  ASHRAETau,                              ! Solar Model Indicator
  ,                                       ! Beam Solar Day Schedule Name
  ,                                       ! Diffuse Solar Day Schedule Name
  0.565,                                  ! ASHRAE Taub {dimensionless}
  1.763;                                  ! ASHRAE Taud {dimensionless}

OS:ComponentData,
  {9af103ca-22af-4e95-a446-42141bcd6cfa}, ! Handle
  Component Data 1,                       ! Name
  {6b03476b-9e17-431b-adcc-0d1e5cabc4ae}, ! UUID
  {cde24132-fa6e-469a-811f-ebd182cb7463}, ! Version UUID
  1366308614,                             ! Creation Timestamp
  1366308614,                             ! Version Timestamp
  {44f03e19-432c-489c-8ffd-d2572b638a39}; ! Name of Object 1

