
OS:Version,
  {e4e127b3-5330-44aa-9d29-a8698f2b9663}, ! Handle
  0.9.3;                                  ! Version Identifier

OS:SizingPeriod:DesignDay,
  {8ae4c392-0a6d-4a29-9d67-8c23b61b898d}, ! Handle
  Burlington International Ap Ann Htg Wind 99.6% Condns WS=>MCDB, ! Name
  -0.1,                                   ! Maximum Dry-Bulb Temperature {C}
  0,                                      ! Daily Dry-Bulb Temperature Range {deltaC}
  -0.1,                                   ! Humidity Indicating Conditions at Maximum Dry-Bulb {BasedOnField A3}
  100118,                                 ! Barometric Pressure {Pa}
  12.4,                                   ! Wind Speed {m/s}
  60,                                     ! Wind Direction {deg}
  0,                                      ! Sky Clearness
  0,                                      ! Rain Indicator
  0,                                      ! Snow Indicator
  21,                                     ! Day of Month
  1,                                      ! Month
  WinterDesignDay,                        ! Day Type
  0,                                      ! Daylight Saving Time Indicator
  Wetbulb,                                ! Humidity Indicating Type
  ,                                       ! Humidity Indicating Day Schedule Name
  DefaultMultipliers,                     ! Dry-Bulb Temperature Range Modifier Type
  ,                                       ! Dry-Bulb Temperature Range Modifier Schedule Name
  ASHRAEClearSky;                         ! Solar Model Indicator

OS:ComponentData,
  {62c4ea05-d72e-4f03-9d9a-c407017e01e1}, ! Handle
  Component Data 1,                       ! Name
  {12f178d0-c814-4e0b-b1af-6a26d8b7d0f0}, ! UUID
  {ecc193b5-6144-4e80-b4fc-56de4c3c3806}, ! Version UUID
  1366311245,                             ! Creation Timestamp
  1366311245,                             ! Version Timestamp
  {8ae4c392-0a6d-4a29-9d67-8c23b61b898d}; ! Name of Object 1

