
OS:Version,
  {178c0c03-18b8-4379-a909-4655beb9ac18}, ! Handle
  0.9.3;                                  ! Version Identifier

OS:SizingPeriod:DesignDay,
  {fbb88af7-cbd6-4851-8bd3-443da0fcbcd9}, ! Handle
  Bristol Tri City Airport Ann Hum_n 99.6% Condns DP=>MCDB, ! Name
  -8.4,                                   ! Maximum Dry-Bulb Temperature {C}
  0,                                      ! Daily Dry-Bulb Temperature Range {deltaC}
  -17.4,                                  ! Humidity Indicating Conditions at Maximum Dry-Bulb {BasedOnField A3}
  95954,                                  ! Barometric Pressure {Pa}
  2.1,                                    ! Wind Speed {m/s}
  260,                                    ! Wind Direction {deg}
  0,                                      ! Sky Clearness
  0,                                      ! Rain Indicator
  0,                                      ! Snow Indicator
  21,                                     ! Day of Month
  1,                                      ! Month
  WinterDesignDay,                        ! Day Type
  0,                                      ! Daylight Saving Time Indicator
  Dewpoint,                               ! Humidity Indicating Type
  ,                                       ! Humidity Indicating Day Schedule Name
  DefaultMultipliers,                     ! Dry-Bulb Temperature Range Modifier Type
  ,                                       ! Dry-Bulb Temperature Range Modifier Schedule Name
  ASHRAEClearSky;                         ! Solar Model Indicator

OS:ComponentData,
  {ac3c8d7a-a3b1-473f-b4fb-2051841255f2}, ! Handle
  Component Data 1,                       ! Name
  {c2e26fab-31f3-4518-8bff-ccdd19009ba5}, ! UUID
  {2b62c42f-e53f-477b-b3f5-71707b0605ea}, ! Version UUID
  1366310476,                             ! Creation Timestamp
  1366310476,                             ! Version Timestamp
  {fbb88af7-cbd6-4851-8bd3-443da0fcbcd9}; ! Name of Object 1

