
OS:Version,
  {2c615c66-17c0-4927-b35a-9f8fdbecad7c}, ! Handle
  0.9.3;                                  ! Version Identifier

OS:SizingPeriod:DesignDay,
  {07afcfba-c17a-4a17-8343-f3659adaa2df}, ! Handle
  Dillingham  Amos Ann Clg 2% Condns DB=>MWB, ! Name
  17.5,                                   ! Maximum Dry-Bulb Temperature {C}
  7.2,                                    ! Daily Dry-Bulb Temperature Range {deltaC}
  12.5,                                   ! Humidity Indicating Conditions at Maximum Dry-Bulb {BasedOnField A3}
  100977,                                 ! Barometric Pressure {Pa}
  4.1,                                    ! Wind Speed {m/s}
  180,                                    ! Wind Direction {deg}
  0,                                      ! Sky Clearness
  0,                                      ! Rain Indicator
  0,                                      ! Snow Indicator
  21,                                     ! Day of Month
  7,                                      ! Month
  SummerDesignDay,                        ! Day Type
  0,                                      ! Daylight Saving Time Indicator
  Wetbulb,                                ! Humidity Indicating Type
  ,                                       ! Humidity Indicating Day Schedule Name
  DefaultMultipliers,                     ! Dry-Bulb Temperature Range Modifier Type
  ,                                       ! Dry-Bulb Temperature Range Modifier Schedule Name
  ASHRAETau,                              ! Solar Model Indicator
  ,                                       ! Beam Solar Day Schedule Name
  ,                                       ! Diffuse Solar Day Schedule Name
  0.382,                                  ! ASHRAE Taub {dimensionless}
  2.243;                                  ! ASHRAE Taud {dimensionless}

OS:ComponentData,
  {2777e23b-8228-4bfe-87dd-9c4dd2bb5aa7}, ! Handle
  Component Data 1,                       ! Name
  {e2173678-9c80-4fae-b4df-a65edeaa3f0d}, ! UUID
  {c86756fe-a366-45f8-9fd2-39a4b098edd7}, ! Version UUID
  1366305232,                             ! Creation Timestamp
  1366305232,                             ! Version Timestamp
  {07afcfba-c17a-4a17-8343-f3659adaa2df}; ! Name of Object 1

