
OS:Version,
  {81c3729c-8caa-4900-8cda-59505f1631e8}, ! Handle
  0.9.3;                                  ! Version Identifier

OS:SizingPeriod:DesignDay,
  {e434c856-842b-4e5c-b526-53cc8c80784e}, ! Handle
  Columbus Metropolitan Arpt Ann Clg 1% Condns DB=>MWB, ! Name
  34.5,                                   ! Maximum Dry-Bulb Temperature {C}
  10.1,                                   ! Daily Dry-Bulb Temperature Range {deltaC}
  23.8,                                   ! Humidity Indicating Conditions at Maximum Dry-Bulb {BasedOnField A3}
  99892,                                  ! Barometric Pressure {Pa}
  3.7,                                    ! Wind Speed {m/s}
  270,                                    ! Wind Direction {deg}
  0,                                      ! Sky Clearness
  0,                                      ! Rain Indicator
  0,                                      ! Snow Indicator
  21,                                     ! Day of Month
  7,                                      ! Month
  SummerDesignDay,                        ! Day Type
  0,                                      ! Daylight Saving Time Indicator
  Wetbulb,                                ! Humidity Indicating Type
  ,                                       ! Humidity Indicating Day Schedule Name
  DefaultMultipliers,                     ! Dry-Bulb Temperature Range Modifier Type
  ,                                       ! Dry-Bulb Temperature Range Modifier Schedule Name
  ASHRAETau,                              ! Solar Model Indicator
  ,                                       ! Beam Solar Day Schedule Name
  ,                                       ! Diffuse Solar Day Schedule Name
  0.564,                                  ! ASHRAE Taub {dimensionless}
  1.778;                                  ! ASHRAE Taud {dimensionless}

OS:ComponentData,
  {eee17533-9ddb-4d3b-94ab-37acfb4ac6af}, ! Handle
  Component Data 1,                       ! Name
  {04b5ef13-57fb-4fd2-87de-9c2f753ae5fd}, ! UUID
  {89b10adf-30e1-426a-86d5-4ba3f6d4e7fd}, ! Version UUID
  1366307004,                             ! Creation Timestamp
  1366307004,                             ! Version Timestamp
  {e434c856-842b-4e5c-b526-53cc8c80784e}; ! Name of Object 1

