
OS:Version,
  {a6cd79af-c8aa-4827-b287-7f4b906593b1}, ! Handle
  0.9.3;                                  ! Version Identifier

OS:SizingPeriod:DesignDay,
  {663c76b2-d97c-42ff-8754-09f3156de216}, ! Handle
  Louisville Bowman Field Ann Hum_n 99.6% Condns DP=>MCDB, ! Name
  -12.1,                                  ! Maximum Dry-Bulb Temperature {C}
  0,                                      ! Daily Dry-Bulb Temperature Range {deltaC}
  -18.6,                                  ! Humidity Indicating Conditions at Maximum Dry-Bulb {BasedOnField A3}
  99358,                                  ! Barometric Pressure {Pa}
  3.6,                                    ! Wind Speed {m/s}
  290,                                    ! Wind Direction {deg}
  0,                                      ! Sky Clearness
  0,                                      ! Rain Indicator
  0,                                      ! Snow Indicator
  21,                                     ! Day of Month
  1,                                      ! Month
  WinterDesignDay,                        ! Day Type
  0,                                      ! Daylight Saving Time Indicator
  Dewpoint,                               ! Humidity Indicating Type
  ,                                       ! Humidity Indicating Day Schedule Name
  DefaultMultipliers,                     ! Dry-Bulb Temperature Range Modifier Type
  ,                                       ! Dry-Bulb Temperature Range Modifier Schedule Name
  ASHRAEClearSky;                         ! Solar Model Indicator

OS:ComponentData,
  {21d89a69-a206-44be-bc74-784f30bce51e}, ! Handle
  Component Data 1,                       ! Name
  {1c240423-5696-4625-9ce4-cf62c9c467a3}, ! UUID
  {bbc3a96d-b7a6-4d73-b053-e1bb9d688e18}, ! Version UUID
  1366307663,                             ! Creation Timestamp
  1366307663,                             ! Version Timestamp
  {663c76b2-d97c-42ff-8754-09f3156de216}; ! Name of Object 1

