
OS:Version,
  {ca14654d-175f-47c1-bfdd-a7718c8df417}, ! Handle
  0.9.3;                                  ! Version Identifier

OS:SizingPeriod:DesignDay,
  {42306544-b216-468f-82f1-6e7fc7101f2a}, ! Handle
  Louisville Bowman Field Ann Htg 99% Condns DB, ! Name
  -10.2,                                  ! Maximum Dry-Bulb Temperature {C}
  0,                                      ! Daily Dry-Bulb Temperature Range {deltaC}
  -10.2,                                  ! Humidity Indicating Conditions at Maximum Dry-Bulb {BasedOnField A3}
  99358,                                  ! Barometric Pressure {Pa}
  3.6,                                    ! Wind Speed {m/s}
  290,                                    ! Wind Direction {deg}
  0,                                      ! Sky Clearness
  0,                                      ! Rain Indicator
  0,                                      ! Snow Indicator
  21,                                     ! Day of Month
  1,                                      ! Month
  WinterDesignDay,                        ! Day Type
  0,                                      ! Daylight Saving Time Indicator
  Wetbulb,                                ! Humidity Indicating Type
  ,                                       ! Humidity Indicating Day Schedule Name
  DefaultMultipliers,                     ! Dry-Bulb Temperature Range Modifier Type
  ,                                       ! Dry-Bulb Temperature Range Modifier Schedule Name
  ASHRAEClearSky;                         ! Solar Model Indicator

OS:ComponentData,
  {6e7d3fa5-9ed7-44a2-8cb6-ef978dcd26b2}, ! Handle
  Component Data 1,                       ! Name
  {b23fd2e2-52a0-4350-8dd9-8c2a4af7e2c4}, ! UUID
  {77398a72-8c2e-4e95-92fc-6aa5cecf65a4}, ! Version UUID
  1366307663,                             ! Creation Timestamp
  1366307663,                             ! Version Timestamp
  {42306544-b216-468f-82f1-6e7fc7101f2a}; ! Name of Object 1

