
OS:Version,
  {70957be0-e38e-4914-9143-b925de66b4ce}, ! Handle
  0.9.3;                                  ! Version Identifier

OS:SizingPeriod:DesignDay,
  {cc3c3197-75f6-489f-9d01-2a4ea4ccef6c}, ! Handle
  Lamar Municipal Ann Clg .4% Condns DP=>MDB, ! Name
  24,                                     ! Maximum Dry-Bulb Temperature {C}
  16.8,                                   ! Daily Dry-Bulb Temperature Range {deltaC}
  19,                                     ! Humidity Indicating Conditions at Maximum Dry-Bulb {BasedOnField A3}
  88477,                                  ! Barometric Pressure {Pa}
  5.8,                                    ! Wind Speed {m/s}
  180,                                    ! Wind Direction {deg}
  0,                                      ! Sky Clearness
  0,                                      ! Rain Indicator
  0,                                      ! Snow Indicator
  21,                                     ! Day of Month
  7,                                      ! Month
  SummerDesignDay,                        ! Day Type
  0,                                      ! Daylight Saving Time Indicator
  Dewpoint,                               ! Humidity Indicating Type
  ,                                       ! Humidity Indicating Day Schedule Name
  DefaultMultipliers,                     ! Dry-Bulb Temperature Range Modifier Type
  ,                                       ! Dry-Bulb Temperature Range Modifier Schedule Name
  ASHRAETau,                              ! Solar Model Indicator
  ,                                       ! Beam Solar Day Schedule Name
  ,                                       ! Diffuse Solar Day Schedule Name
  0.438,                                  ! ASHRAE Taub {dimensionless}
  1.984;                                  ! ASHRAE Taud {dimensionless}

OS:ComponentData,
  {29b364ae-4cec-4771-8164-7fb71401a425}, ! Handle
  Component Data 1,                       ! Name
  {62004b53-2846-4945-8822-160067c1b0a7}, ! UUID
  {d24b94a5-147f-4fee-b349-93bd163c1fa5}, ! Version UUID
  1366306717,                             ! Creation Timestamp
  1366306717,                             ! Version Timestamp
  {cc3c3197-75f6-489f-9d01-2a4ea4ccef6c}; ! Name of Object 1

