
OS:Version,
  {c0060fe8-213f-4c72-ad89-91a9118db9bf}, ! Handle
  0.9.3;                                  ! Version Identifier

OS:SizingPeriod:DesignDay,
  {41f0f67b-5c94-4de1-b30a-80254a08ef78}, ! Handle
  FAIRBANKS Ann Clg 2% Condns Enth=>MDB,  ! Name
  21.9,                                   ! Maximum Dry-Bulb Temperature {C}
  10.2,                                   ! Daily Dry-Bulb Temperature Range {deltaC}
  43900,                                  ! Humidity Indicating Conditions at Maximum Dry-Bulb {BasedOnField A3}
  99678,                                  ! Barometric Pressure {Pa}
  3.1,                                    ! Wind Speed {m/s}
  180,                                    ! Wind Direction {deg}
  0,                                      ! Sky Clearness
  0,                                      ! Rain Indicator
  0,                                      ! Snow Indicator
  21,                                     ! Day of Month
  7,                                      ! Month
  SummerDesignDay,                        ! Day Type
  0,                                      ! Daylight Saving Time Indicator
  Enthalpy,                               ! Humidity Indicating Type
  ,                                       ! Humidity Indicating Day Schedule Name
  DefaultMultipliers,                     ! Dry-Bulb Temperature Range Modifier Type
  ,                                       ! Dry-Bulb Temperature Range Modifier Schedule Name
  ASHRAETau,                              ! Solar Model Indicator
  ,                                       ! Beam Solar Day Schedule Name
  ,                                       ! Diffuse Solar Day Schedule Name
  0.387,                                  ! ASHRAE Taub {dimensionless}
  2.212;                                  ! ASHRAE Taud {dimensionless}

OS:ComponentData,
  {c807c1d6-2490-4265-b38a-0983715cbca6}, ! Handle
  Component Data 1,                       ! Name
  {749b501d-f992-4c9c-85dc-f372e19b68af}, ! UUID
  {2671120b-7a55-481f-b0b4-948113154c55}, ! Version UUID
  1366305252,                             ! Creation Timestamp
  1366305252,                             ! Version Timestamp
  {41f0f67b-5c94-4de1-b30a-80254a08ef78}; ! Name of Object 1

