
OS:Version,
  {40ff7f6c-f8b2-423b-ae19-8e27088855dc}, ! Handle
  0.9.3;                                  ! Version Identifier

OS:SizingPeriod:DesignDay,
  {9b40dfb4-c2cb-4b1a-8612-40ce79f67e54}, ! Handle
  Dutch Harbor Ann Clg .4% Condns Enth=>MDB, ! Name
  17,                                     ! Maximum Dry-Bulb Temperature {C}
  4.2,                                    ! Daily Dry-Bulb Temperature Range {deltaC}
  40000,                                  ! Humidity Indicating Conditions at Maximum Dry-Bulb {BasedOnField A3}
  101277,                                 ! Barometric Pressure {Pa}
  4.9,                                    ! Wind Speed {m/s}
  150,                                    ! Wind Direction {deg}
  0,                                      ! Sky Clearness
  0,                                      ! Rain Indicator
  0,                                      ! Snow Indicator
  21,                                     ! Day of Month
  8,                                      ! Month
  SummerDesignDay,                        ! Day Type
  0,                                      ! Daylight Saving Time Indicator
  Enthalpy,                               ! Humidity Indicating Type
  ,                                       ! Humidity Indicating Day Schedule Name
  DefaultMultipliers,                     ! Dry-Bulb Temperature Range Modifier Type
  ,                                       ! Dry-Bulb Temperature Range Modifier Schedule Name
  ASHRAETau,                              ! Solar Model Indicator
  ,                                       ! Beam Solar Day Schedule Name
  ,                                       ! Diffuse Solar Day Schedule Name
  0.39,                                   ! ASHRAE Taub {dimensionless}
  2.25;                                   ! ASHRAE Taud {dimensionless}

OS:ComponentData,
  {96a447a2-d279-4795-9966-e43643324cd9}, ! Handle
  Component Data 1,                       ! Name
  {96ffcdc7-5a32-44d3-87ae-8583d7c0342c}, ! UUID
  {6f21a699-377f-418a-bab5-6aae69a2ba15}, ! Version UUID
  1366305603,                             ! Creation Timestamp
  1366305603,                             ! Version Timestamp
  {9b40dfb4-c2cb-4b1a-8612-40ce79f67e54}; ! Name of Object 1

