
OS:Version,
  {569400cf-2d10-4f74-b79f-b3bf6599709e}, ! Handle
  0.9.3;                                  ! Version Identifier

OS:SizingPeriod:DesignDay,
  {56ca513c-e17a-4283-85b2-5fc40abb0217}, ! Handle
  Bluefield Mercer Co  Nrel Ann Clg 2% Condns WB=>MDB, ! Name
  25.2,                                   ! Maximum Dry-Bulb Temperature {C}
  8.6,                                    ! Daily Dry-Bulb Temperature Range {deltaC}
  20.8,                                   ! Humidity Indicating Conditions at Maximum Dry-Bulb {BasedOnField A3}
  92043,                                  ! Barometric Pressure {Pa}
  2.4,                                    ! Wind Speed {m/s}
  270,                                    ! Wind Direction {deg}
  0,                                      ! Sky Clearness
  0,                                      ! Rain Indicator
  0,                                      ! Snow Indicator
  21,                                     ! Day of Month
  7,                                      ! Month
  SummerDesignDay,                        ! Day Type
  0,                                      ! Daylight Saving Time Indicator
  Wetbulb,                                ! Humidity Indicating Type
  ,                                       ! Humidity Indicating Day Schedule Name
  DefaultMultipliers,                     ! Dry-Bulb Temperature Range Modifier Type
  ,                                       ! Dry-Bulb Temperature Range Modifier Schedule Name
  ASHRAETau,                              ! Solar Model Indicator
  ,                                       ! Beam Solar Day Schedule Name
  ,                                       ! Diffuse Solar Day Schedule Name
  0.476,                                  ! ASHRAE Taub {dimensionless}
  1.931;                                  ! ASHRAE Taud {dimensionless}

OS:ComponentData,
  {7cc0ff01-263b-47b5-a935-5e19ddaacff7}, ! Handle
  Component Data 1,                       ! Name
  {88587f2f-f8e7-44b2-bc1c-528ba747c2c0}, ! UUID
  {8fa089be-b63b-44cd-ae7d-6f210106dbf5}, ! Version UUID
  1366311615,                             ! Creation Timestamp
  1366311615,                             ! Version Timestamp
  {56ca513c-e17a-4283-85b2-5fc40abb0217}; ! Name of Object 1

