
OS:Version,
  {764577f8-8d3e-4823-8388-0c9bda1b8d95}, ! Handle
  0.9.3;                                  ! Version Identifier

OS:SizingPeriod:DesignDay,
  {58af759f-d1fa-43ed-8896-d26573cfa33b}, ! Handle
  Dubois Faa Ap Ann Clg .4% Condns DB=>MWB, ! Name
  29.7,                                   ! Maximum Dry-Bulb Temperature {C}
  10.4,                                   ! Daily Dry-Bulb Temperature Range {deltaC}
  20.9,                                   ! Humidity Indicating Conditions at Maximum Dry-Bulb {BasedOnField A3}
  94856,                                  ! Barometric Pressure {Pa}
  4.4,                                    ! Wind Speed {m/s}
  250,                                    ! Wind Direction {deg}
  0,                                      ! Sky Clearness
  0,                                      ! Rain Indicator
  0,                                      ! Snow Indicator
  21,                                     ! Day of Month
  7,                                      ! Month
  SummerDesignDay,                        ! Day Type
  0,                                      ! Daylight Saving Time Indicator
  Wetbulb,                                ! Humidity Indicating Type
  ,                                       ! Humidity Indicating Day Schedule Name
  DefaultMultipliers,                     ! Dry-Bulb Temperature Range Modifier Type
  ,                                       ! Dry-Bulb Temperature Range Modifier Schedule Name
  ASHRAETau,                              ! Solar Model Indicator
  ,                                       ! Beam Solar Day Schedule Name
  ,                                       ! Diffuse Solar Day Schedule Name
  0.441,                                  ! ASHRAE Taub {dimensionless}
  2.051;                                  ! ASHRAE Taud {dimensionless}

OS:ComponentData,
  {de627cf2-a690-4a49-b555-856fdd7b24dd}, ! Handle
  Component Data 1,                       ! Name
  {d6f6a2da-5e0b-4687-a3af-c62d6668c376}, ! UUID
  {4bccfc46-3424-4cda-884c-53095e8b8481}, ! Version UUID
  1366310159,                             ! Creation Timestamp
  1366310159,                             ! Version Timestamp
  {58af759f-d1fa-43ed-8896-d26573cfa33b}; ! Name of Object 1

