
OS:Version,
  {ababad31-fa2c-4608-bfa6-899f94abf4f9}, ! Handle
  0.9.3;                                  ! Version Identifier

OS:SizingPeriod:DesignDay,
  {0e2e4b45-2158-4934-a4e5-7a93a7424442}, ! Handle
  Chula Vista Brown Field Naas Ann Clg 2% Condns Enth=>MDB, ! Name
  25.7,                                   ! Maximum Dry-Bulb Temperature {C}
  8.9,                                    ! Daily Dry-Bulb Temperature Range {deltaC}
  59100,                                  ! Humidity Indicating Conditions at Maximum Dry-Bulb {BasedOnField A3}
  99429,                                  ! Barometric Pressure {Pa}
  4.1,                                    ! Wind Speed {m/s}
  280,                                    ! Wind Direction {deg}
  0,                                      ! Sky Clearness
  0,                                      ! Rain Indicator
  0,                                      ! Snow Indicator
  21,                                     ! Day of Month
  8,                                      ! Month
  SummerDesignDay,                        ! Day Type
  0,                                      ! Daylight Saving Time Indicator
  Enthalpy,                               ! Humidity Indicating Type
  ,                                       ! Humidity Indicating Day Schedule Name
  DefaultMultipliers,                     ! Dry-Bulb Temperature Range Modifier Type
  ,                                       ! Dry-Bulb Temperature Range Modifier Schedule Name
  ASHRAETau,                              ! Solar Model Indicator
  ,                                       ! Beam Solar Day Schedule Name
  ,                                       ! Diffuse Solar Day Schedule Name
  0.412,                                  ! ASHRAE Taub {dimensionless}
  2.276;                                  ! ASHRAE Taud {dimensionless}

OS:ComponentData,
  {2c9cb7de-b1ff-4034-b1ec-ff14446896f5}, ! Handle
  Component Data 1,                       ! Name
  {e298c80a-a32c-47b3-b205-ffd9f7fb3a5a}, ! UUID
  {0b77c1af-7be7-4481-846b-390b788714b9}, ! Version UUID
  1366306415,                             ! Creation Timestamp
  1366306415,                             ! Version Timestamp
  {0e2e4b45-2158-4934-a4e5-7a93a7424442}; ! Name of Object 1

