
OS:Version,
  {13e255c3-d8a4-4d71-850c-b3e4e31f0276}, ! Handle
  0.9.3;                                  ! Version Identifier

OS:SizingPeriod:DesignDay,
  {43adbd37-b1a5-4de2-95eb-71a2d6881520}, ! Handle
  Henderson City Ann Clg 1% Condns WB=>MDB, ! Name
  31.3,                                   ! Maximum Dry-Bulb Temperature {C}
  10.9,                                   ! Daily Dry-Bulb Temperature Range {deltaC}
  25.6,                                   ! Humidity Indicating Conditions at Maximum Dry-Bulb {BasedOnField A3}
  99927,                                  ! Barometric Pressure {Pa}
  3,                                      ! Wind Speed {m/s}
  210,                                    ! Wind Direction {deg}
  0,                                      ! Sky Clearness
  0,                                      ! Rain Indicator
  0,                                      ! Snow Indicator
  21,                                     ! Day of Month
  7,                                      ! Month
  SummerDesignDay,                        ! Day Type
  0,                                      ! Daylight Saving Time Indicator
  Wetbulb,                                ! Humidity Indicating Type
  ,                                       ! Humidity Indicating Day Schedule Name
  DefaultMultipliers,                     ! Dry-Bulb Temperature Range Modifier Type
  ,                                       ! Dry-Bulb Temperature Range Modifier Schedule Name
  ASHRAETau,                              ! Solar Model Indicator
  ,                                       ! Beam Solar Day Schedule Name
  ,                                       ! Diffuse Solar Day Schedule Name
  0.508,                                  ! ASHRAE Taub {dimensionless}
  1.886;                                  ! ASHRAE Taud {dimensionless}

OS:ComponentData,
  {792e4b7b-7fa5-4f84-acef-d465f8c1eb01}, ! Handle
  Component Data 1,                       ! Name
  {37ddeeef-d880-4b19-aad8-52a3ec76b366}, ! UUID
  {29fca199-88a8-47f5-bcb5-1fdd16ee4a0c}, ! Version UUID
  1366307639,                             ! Creation Timestamp
  1366307639,                             ! Version Timestamp
  {43adbd37-b1a5-4de2-95eb-71a2d6881520}; ! Name of Object 1

