
OS:Version,
  {99d843de-b60f-4869-84d3-60e9ce14f7c8}, ! Handle
  0.9.3;                                  ! Version Identifier

OS:SizingPeriod:DesignDay,
  {7c67bb74-1c56-4b5d-bf79-f058c6f7586e}, ! Handle
  Bakersfield Meadows Field Ann Htg Wind 99% Condns WS=>MCDB, ! Name
  14.2,                                   ! Maximum Dry-Bulb Temperature {C}
  0,                                      ! Daily Dry-Bulb Temperature Range {deltaC}
  14.2,                                   ! Humidity Indicating Conditions at Maximum Dry-Bulb {BasedOnField A3}
  99548,                                  ! Barometric Pressure {Pa}
  8.7,                                    ! Wind Speed {m/s}
  90,                                     ! Wind Direction {deg}
  0,                                      ! Sky Clearness
  0,                                      ! Rain Indicator
  0,                                      ! Snow Indicator
  21,                                     ! Day of Month
  12,                                     ! Month
  WinterDesignDay,                        ! Day Type
  0,                                      ! Daylight Saving Time Indicator
  Wetbulb,                                ! Humidity Indicating Type
  ,                                       ! Humidity Indicating Day Schedule Name
  DefaultMultipliers,                     ! Dry-Bulb Temperature Range Modifier Type
  ,                                       ! Dry-Bulb Temperature Range Modifier Schedule Name
  ASHRAEClearSky;                         ! Solar Model Indicator

OS:ComponentData,
  {568f4111-a2d3-4688-9303-618462eaca48}, ! Handle
  Component Data 1,                       ! Name
  {ae2cc1c1-1b50-4630-82e5-270244496b94}, ! UUID
  {e2b6d08a-2cd9-44bd-9242-71bb5eff450d}, ! Version UUID
  1366306363,                             ! Creation Timestamp
  1366306363,                             ! Version Timestamp
  {7c67bb74-1c56-4b5d-bf79-f058c6f7586e}; ! Name of Object 1

