
OS:Version,
  {f17fe9f5-fefc-470d-9915-c9c49c8703cd}, ! Handle
  0.9.3;                                  ! Version Identifier

OS:SizingPeriod:DesignDay,
  {3042ea13-7edc-422b-a0f8-236b5837b8af}, ! Handle
  Lawrence Muni Ann Clg 1% Condns DP=>MDB, ! Name
  26.2,                                   ! Maximum Dry-Bulb Temperature {C}
  10.2,                                   ! Daily Dry-Bulb Temperature Range {deltaC}
  22.4,                                   ! Humidity Indicating Conditions at Maximum Dry-Bulb {BasedOnField A3}
  100774,                                 ! Barometric Pressure {Pa}
  4.5,                                    ! Wind Speed {m/s}
  250,                                    ! Wind Direction {deg}
  0,                                      ! Sky Clearness
  0,                                      ! Rain Indicator
  0,                                      ! Snow Indicator
  21,                                     ! Day of Month
  7,                                      ! Month
  SummerDesignDay,                        ! Day Type
  0,                                      ! Daylight Saving Time Indicator
  Dewpoint,                               ! Humidity Indicating Type
  ,                                       ! Humidity Indicating Day Schedule Name
  DefaultMultipliers,                     ! Dry-Bulb Temperature Range Modifier Type
  ,                                       ! Dry-Bulb Temperature Range Modifier Schedule Name
  ASHRAETau,                              ! Solar Model Indicator
  ,                                       ! Beam Solar Day Schedule Name
  ,                                       ! Diffuse Solar Day Schedule Name
  0.475,                                  ! ASHRAE Taub {dimensionless}
  1.982;                                  ! ASHRAE Taud {dimensionless}

OS:ComponentData,
  {ffb0855c-7f3b-4a82-a277-96e0aed574c4}, ! Handle
  Component Data 1,                       ! Name
  {181dd062-26f0-4559-ba7f-da060ba51d60}, ! UUID
  {a839bdaa-dd07-41c4-8e33-d7530d9dbf75}, ! Version UUID
  1366307798,                             ! Creation Timestamp
  1366307798,                             ! Version Timestamp
  {3042ea13-7edc-422b-a0f8-236b5837b8af}; ! Name of Object 1

