
OS:Version,
  {8d933def-2248-416b-96db-681844eb4928}, ! Handle
  0.9.3;                                  ! Version Identifier

OS:SizingPeriod:DesignDay,
  {d5bdadab-b588-411c-87c2-7da305f00b39}, ! Handle
  Hancock Houghton Co Ap Ann Htg 99.6% Condns DB, ! Name
  -20.8,                                  ! Maximum Dry-Bulb Temperature {C}
  0,                                      ! Daily Dry-Bulb Temperature Range {deltaC}
  -20.8,                                  ! Humidity Indicating Conditions at Maximum Dry-Bulb {BasedOnField A3}
  97458,                                  ! Barometric Pressure {Pa}
  4.3,                                    ! Wind Speed {m/s}
  310,                                    ! Wind Direction {deg}
  0,                                      ! Sky Clearness
  0,                                      ! Rain Indicator
  0,                                      ! Snow Indicator
  21,                                     ! Day of Month
  1,                                      ! Month
  WinterDesignDay,                        ! Day Type
  0,                                      ! Daylight Saving Time Indicator
  Wetbulb,                                ! Humidity Indicating Type
  ,                                       ! Humidity Indicating Day Schedule Name
  DefaultMultipliers,                     ! Dry-Bulb Temperature Range Modifier Type
  ,                                       ! Dry-Bulb Temperature Range Modifier Schedule Name
  ASHRAEClearSky;                         ! Solar Model Indicator

OS:ComponentData,
  {69749e00-02e8-41f0-9e71-564d92ddcaa8}, ! Handle
  Component Data 1,                       ! Name
  {bbaec3c3-1891-4464-ab38-d5183877ccdc}, ! UUID
  {b08e8224-cfb4-4387-9850-8448359b2c23}, ! Version UUID
  1366308020,                             ! Creation Timestamp
  1366308020,                             ! Version Timestamp
  {d5bdadab-b588-411c-87c2-7da305f00b39}; ! Name of Object 1

