
OS:Version,
  {c8711e91-5ba3-4d10-8e26-b6c5d2a05f3e}, ! Handle
  0.9.3;                                  ! Version Identifier

OS:SizingPeriod:DesignDay,
  {3e48eb93-d239-448b-ae10-a470e9b8d4ba}, ! Handle
  GRAND_RAPIDS Ann Clg 1% Condns Enth=>MDB, ! Name
  28.1,                                   ! Maximum Dry-Bulb Temperature {C}
  11.1,                                   ! Daily Dry-Bulb Temperature Range {deltaC}
  71700,                                  ! Humidity Indicating Conditions at Maximum Dry-Bulb {BasedOnField A3}
  98416,                                  ! Barometric Pressure {Pa}
  5.8,                                    ! Wind Speed {m/s}
  240,                                    ! Wind Direction {deg}
  0,                                      ! Sky Clearness
  0,                                      ! Rain Indicator
  0,                                      ! Snow Indicator
  21,                                     ! Day of Month
  7,                                      ! Month
  SummerDesignDay,                        ! Day Type
  0,                                      ! Daylight Saving Time Indicator
  Enthalpy,                               ! Humidity Indicating Type
  ,                                       ! Humidity Indicating Day Schedule Name
  DefaultMultipliers,                     ! Dry-Bulb Temperature Range Modifier Type
  ,                                       ! Dry-Bulb Temperature Range Modifier Schedule Name
  ASHRAETau,                              ! Solar Model Indicator
  ,                                       ! Beam Solar Day Schedule Name
  ,                                       ! Diffuse Solar Day Schedule Name
  0.424,                                  ! ASHRAE Taub {dimensionless}
  2.173;                                  ! ASHRAE Taud {dimensionless}

OS:ComponentData,
  {4183c1eb-cc79-4cde-9f5b-8a597c726784}, ! Handle
  Component Data 1,                       ! Name
  {a72c654b-024a-452a-a625-57529ed93721}, ! UUID
  {7bdee5c5-924a-4773-9f73-9eb74966e4df}, ! Version UUID
  1366308019,                             ! Creation Timestamp
  1366308019,                             ! Version Timestamp
  {3e48eb93-d239-448b-ae10-a470e9b8d4ba}; ! Name of Object 1

