
OS:Version,
  {d2654fe0-6216-47f6-9621-760aa48e5320}, ! Handle
  0.9.3;                                  ! Version Identifier

OS:SizingPeriod:DesignDay,
  {3feba55b-25cb-4dfe-ba05-2cb0d5dbf9bf}, ! Handle
  Crane Lake  Awos Ann Clg 1% Condns DB=>MWB, ! Name
  27.9,                                   ! Maximum Dry-Bulb Temperature {C}
  12,                                     ! Daily Dry-Bulb Temperature Range {deltaC}
  19.5,                                   ! Humidity Indicating Conditions at Maximum Dry-Bulb {BasedOnField A3}
  97190,                                  ! Barometric Pressure {Pa}
  2.5,                                    ! Wind Speed {m/s}
  180,                                    ! Wind Direction {deg}
  0,                                      ! Sky Clearness
  0,                                      ! Rain Indicator
  0,                                      ! Snow Indicator
  21,                                     ! Day of Month
  7,                                      ! Month
  SummerDesignDay,                        ! Day Type
  0,                                      ! Daylight Saving Time Indicator
  Wetbulb,                                ! Humidity Indicating Type
  ,                                       ! Humidity Indicating Day Schedule Name
  DefaultMultipliers,                     ! Dry-Bulb Temperature Range Modifier Type
  ,                                       ! Dry-Bulb Temperature Range Modifier Schedule Name
  ASHRAETau,                              ! Solar Model Indicator
  ,                                       ! Beam Solar Day Schedule Name
  ,                                       ! Diffuse Solar Day Schedule Name
  0.4,                                    ! ASHRAE Taub {dimensionless}
  2.217;                                  ! ASHRAE Taud {dimensionless}

OS:ComponentData,
  {f941ea7a-f616-445c-ab64-6fe4d7693497}, ! Handle
  Component Data 1,                       ! Name
  {fa244971-6f04-4f88-8e49-642f466f0f7d}, ! UUID
  {dccf0deb-335d-4c9e-abb5-7199f2e79ae8}, ! Version UUID
  1366308184,                             ! Creation Timestamp
  1366308184,                             ! Version Timestamp
  {3feba55b-25cb-4dfe-ba05-2cb0d5dbf9bf}; ! Name of Object 1

