
OS:Version,
  {93943cbf-9ad0-424c-9d91-1d07132f0ce6}, ! Handle
  0.9.3;                                  ! Version Identifier

OS:SizingPeriod:DesignDay,
  {d836a477-883f-4381-839d-98a9dd4b6899}, ! Handle
  BURNS Ann Clg .4% Condns DB=>MWB,       ! Name
  33.9,                                   ! Maximum Dry-Bulb Temperature {C}
  20.6,                                   ! Daily Dry-Bulb Temperature Range {deltaC}
  15.9,                                   ! Humidity Indicating Conditions at Maximum Dry-Bulb {BasedOnField A3}
  86959,                                  ! Barometric Pressure {Pa}
  3.4,                                    ! Wind Speed {m/s}
  200,                                    ! Wind Direction {deg}
  0,                                      ! Sky Clearness
  0,                                      ! Rain Indicator
  0,                                      ! Snow Indicator
  21,                                     ! Day of Month
  7,                                      ! Month
  SummerDesignDay,                        ! Day Type
  0,                                      ! Daylight Saving Time Indicator
  Wetbulb,                                ! Humidity Indicating Type
  ,                                       ! Humidity Indicating Day Schedule Name
  DefaultMultipliers,                     ! Dry-Bulb Temperature Range Modifier Type
  ,                                       ! Dry-Bulb Temperature Range Modifier Schedule Name
  ASHRAETau,                              ! Solar Model Indicator
  ,                                       ! Beam Solar Day Schedule Name
  ,                                       ! Diffuse Solar Day Schedule Name
  0.372,                                  ! ASHRAE Taub {dimensionless}
  2.219;                                  ! ASHRAE Taud {dimensionless}

OS:ComponentData,
  {6a3997f3-5bf6-46e7-86c5-f6aeb09de992}, ! Handle
  Component Data 1,                       ! Name
  {4191a95f-7d8d-4b10-9269-77031c323edd}, ! UUID
  {25dfcb76-8c47-422a-b31d-58d7c91ddec8}, ! Version UUID
  1366309992,                             ! Creation Timestamp
  1366309992,                             ! Version Timestamp
  {d836a477-883f-4381-839d-98a9dd4b6899}; ! Name of Object 1

