
OS:Version,
  {87761a11-56ae-4e2e-acad-14b1c5155f89}, ! Handle
  0.9.3;                                  ! Version Identifier

OS:SizingPeriod:DesignDay,
  {8abe858a-5348-48d8-ba89-aae12767fe9c}, ! Handle
  Auburn Opelika Apt Ann Clg 1% Condns WB=>MDB, ! Name
  29.9,                                   ! Maximum Dry-Bulb Temperature {C}
  9.6,                                    ! Daily Dry-Bulb Temperature Range {deltaC}
  24.7,                                   ! Humidity Indicating Conditions at Maximum Dry-Bulb {BasedOnField A3}
  98522,                                  ! Barometric Pressure {Pa}
  3.2,                                    ! Wind Speed {m/s}
  280,                                    ! Wind Direction {deg}
  0,                                      ! Sky Clearness
  0,                                      ! Rain Indicator
  0,                                      ! Snow Indicator
  21,                                     ! Day of Month
  7,                                      ! Month
  SummerDesignDay,                        ! Day Type
  0,                                      ! Daylight Saving Time Indicator
  Wetbulb,                                ! Humidity Indicating Type
  ,                                       ! Humidity Indicating Day Schedule Name
  DefaultMultipliers,                     ! Dry-Bulb Temperature Range Modifier Type
  ,                                       ! Dry-Bulb Temperature Range Modifier Schedule Name
  ASHRAETau,                              ! Solar Model Indicator
  ,                                       ! Beam Solar Day Schedule Name
  ,                                       ! Diffuse Solar Day Schedule Name
  0.556,                                  ! ASHRAE Taub {dimensionless}
  1.789;                                  ! ASHRAE Taud {dimensionless}

OS:ComponentData,
  {7dc13e2a-1206-40c3-8141-46c0a18b8771}, ! Handle
  Component Data 1,                       ! Name
  {5319c7aa-2a23-45c0-ad4b-ca37a29f2ff1}, ! UUID
  {ca6a9e73-c840-4fab-9d89-9761c0b26392}, ! Version UUID
  1366305637,                             ! Creation Timestamp
  1366305637,                             ! Version Timestamp
  {8abe858a-5348-48d8-ba89-aae12767fe9c}; ! Name of Object 1

