
OS:Version,
  {79a6bfa7-ad48-4e19-912c-f9c4cb6ce0cf}, ! Handle
  0.9.3;                                  ! Version Identifier

OS:SizingPeriod:DesignDay,
  {2911faa0-f6e2-45c4-aa17-3f5de15bd075}, ! Handle
  Alpena County Regional Ap Ann Clg .4% Condns DP=>MDB, ! Name
  26.4,                                   ! Maximum Dry-Bulb Temperature {C}
  12.7,                                   ! Daily Dry-Bulb Temperature Range {deltaC}
  21.8,                                   ! Humidity Indicating Conditions at Maximum Dry-Bulb {BasedOnField A3}
  98828,                                  ! Barometric Pressure {Pa}
  4.8,                                    ! Wind Speed {m/s}
  230,                                    ! Wind Direction {deg}
  0,                                      ! Sky Clearness
  0,                                      ! Rain Indicator
  0,                                      ! Snow Indicator
  21,                                     ! Day of Month
  7,                                      ! Month
  SummerDesignDay,                        ! Day Type
  0,                                      ! Daylight Saving Time Indicator
  Dewpoint,                               ! Humidity Indicating Type
  ,                                       ! Humidity Indicating Day Schedule Name
  DefaultMultipliers,                     ! Dry-Bulb Temperature Range Modifier Type
  ,                                       ! Dry-Bulb Temperature Range Modifier Schedule Name
  ASHRAETau,                              ! Solar Model Indicator
  ,                                       ! Beam Solar Day Schedule Name
  ,                                       ! Diffuse Solar Day Schedule Name
  0.42,                                   ! ASHRAE Taub {dimensionless}
  2.176;                                  ! ASHRAE Taud {dimensionless}

OS:ComponentData,
  {746b0bf4-6ed2-4cd1-a121-c42a25d8994a}, ! Handle
  Component Data 1,                       ! Name
  {4d055efd-b568-41df-aa29-c0f91f6c4972}, ! UUID
  {1bd66c01-5b4b-4066-85ab-17948e28897f}, ! Version UUID
  1366307949,                             ! Creation Timestamp
  1366307949,                             ! Version Timestamp
  {2911faa0-f6e2-45c4-aa17-3f5de15bd075}; ! Name of Object 1

