
OS:Version,
  {fb087d3a-8c38-4786-86cf-23cd1f074dd3}, ! Handle
  0.9.3;                                  ! Version Identifier

OS:SizingPeriod:DesignDay,
  {4fe625f1-ab3c-4772-bc88-67381d7de6d7}, ! Handle
  Chicago/Midway Ann Clg .4% Condns DP=>MDB, ! Name
  29,                                     ! Maximum Dry-Bulb Temperature {C}
  8.8,                                    ! Daily Dry-Bulb Temperature Range {deltaC}
  23.9,                                   ! Humidity Indicating Conditions at Maximum Dry-Bulb {BasedOnField A3}
  99099,                                  ! Barometric Pressure {Pa}
  5.6,                                    ! Wind Speed {m/s}
  220,                                    ! Wind Direction {deg}
  0,                                      ! Sky Clearness
  0,                                      ! Rain Indicator
  0,                                      ! Snow Indicator
  21,                                     ! Day of Month
  7,                                      ! Month
  SummerDesignDay,                        ! Day Type
  0,                                      ! Daylight Saving Time Indicator
  Dewpoint,                               ! Humidity Indicating Type
  ,                                       ! Humidity Indicating Day Schedule Name
  DefaultMultipliers,                     ! Dry-Bulb Temperature Range Modifier Type
  ,                                       ! Dry-Bulb Temperature Range Modifier Schedule Name
  ASHRAETau,                              ! Solar Model Indicator
  ,                                       ! Beam Solar Day Schedule Name
  ,                                       ! Diffuse Solar Day Schedule Name
  0.457,                                  ! ASHRAE Taub {dimensionless}
  2.043;                                  ! ASHRAE Taud {dimensionless}

OS:ComponentData,
  {e3d9f9fe-7fda-4468-ad69-f7e35e8699b3}, ! Handle
  Component Data 1,                       ! Name
  {8cdd7b36-a2e9-4025-ba12-2b76eefdae1c}, ! UUID
  {9fd27e9d-814d-48a0-a881-b16121caa5c6}, ! Version UUID
  1366307339,                             ! Creation Timestamp
  1366307339,                             ! Version Timestamp
  {4fe625f1-ab3c-4772-bc88-67381d7de6d7}; ! Name of Object 1

