
OS:Version,
  {59a3414f-1e9f-43f3-baa8-37089a1f47b9}, ! Handle
  0.9.3;                                  ! Version Identifier

OS:SizingPeriod:DesignDay,
  {1431bd87-8334-4746-a5c8-974463e5280a}, ! Handle
  Key West Intl Arpt Ann Clg .4% Condns WB=>MDB, ! Name
  30.8,                                   ! Maximum Dry-Bulb Temperature {C}
  5.1,                                    ! Daily Dry-Bulb Temperature Range {deltaC}
  27.3,                                   ! Humidity Indicating Conditions at Maximum Dry-Bulb {BasedOnField A3}
  101313,                                 ! Barometric Pressure {Pa}
  4,                                      ! Wind Speed {m/s}
  150,                                    ! Wind Direction {deg}
  0,                                      ! Sky Clearness
  0,                                      ! Rain Indicator
  0,                                      ! Snow Indicator
  21,                                     ! Day of Month
  8,                                      ! Month
  SummerDesignDay,                        ! Day Type
  0,                                      ! Daylight Saving Time Indicator
  Wetbulb,                                ! Humidity Indicating Type
  ,                                       ! Humidity Indicating Day Schedule Name
  DefaultMultipliers,                     ! Dry-Bulb Temperature Range Modifier Type
  ,                                       ! Dry-Bulb Temperature Range Modifier Schedule Name
  ASHRAETau,                              ! Solar Model Indicator
  ,                                       ! Beam Solar Day Schedule Name
  ,                                       ! Diffuse Solar Day Schedule Name
  0.461,                                  ! ASHRAE Taub {dimensionless}
  2.194;                                  ! ASHRAE Taud {dimensionless}

OS:ComponentData,
  {1e04146f-5af9-46ed-9ab9-63b5f1114525}, ! Handle
  Component Data 1,                       ! Name
  {d05595d0-958a-4415-b1c8-bb32065c46e0}, ! UUID
  {2f30438b-cbe3-4b3f-a1c5-caa3ab653e71}, ! Version UUID
  1366306837,                             ! Creation Timestamp
  1366306837,                             ! Version Timestamp
  {1431bd87-8334-4746-a5c8-974463e5280a}; ! Name of Object 1

