
OS:Version,
  {f734b643-3d08-4c65-b3d8-31ec6e98ba8e}, ! Handle
  0.9.3;                                  ! Version Identifier

OS:SizingPeriod:DesignDay,
  {4b345c41-82d1-45a8-ad1c-ccdd8dcd64e3}, ! Handle
  Crestview Bob Sikes Ap Ann Htg 99% Condns DB, ! Name
  -2.5,                                   ! Maximum Dry-Bulb Temperature {C}
  0,                                      ! Daily Dry-Bulb Temperature Range {deltaC}
  -2.5,                                   ! Humidity Indicating Conditions at Maximum Dry-Bulb {BasedOnField A3}
  100630,                                 ! Barometric Pressure {Pa}
  0.9,                                    ! Wind Speed {m/s}
  0,                                      ! Wind Direction {deg}
  0,                                      ! Sky Clearness
  0,                                      ! Rain Indicator
  0,                                      ! Snow Indicator
  21,                                     ! Day of Month
  1,                                      ! Month
  WinterDesignDay,                        ! Day Type
  0,                                      ! Daylight Saving Time Indicator
  Wetbulb,                                ! Humidity Indicating Type
  ,                                       ! Humidity Indicating Day Schedule Name
  DefaultMultipliers,                     ! Dry-Bulb Temperature Range Modifier Type
  ,                                       ! Dry-Bulb Temperature Range Modifier Schedule Name
  ASHRAEClearSky;                         ! Solar Model Indicator

OS:ComponentData,
  {909089fc-bb7b-443b-bf26-d603f4270a1d}, ! Handle
  Component Data 1,                       ! Name
  {5c38baa5-e727-47cf-b483-4fcfb5881030}, ! UUID
  {5797b65a-e04b-49e2-985a-db3d25c6b328}, ! Version UUID
  1366306783,                             ! Creation Timestamp
  1366306783,                             ! Version Timestamp
  {4b345c41-82d1-45a8-ad1c-ccdd8dcd64e3}; ! Name of Object 1

