
OS:Version,
  {dea9ad87-43c5-40da-9fbc-c9c91d42e0eb}, ! Handle
  0.9.3;                                  ! Version Identifier

OS:SizingPeriod:DesignDay,
  {4500c9ee-30ea-4783-8e21-15124693dd22}, ! Handle
  Buffalo Niagara Intl Ap Ann Clg 2% Condns DP=>MDB, ! Name
  24.5,                                   ! Maximum Dry-Bulb Temperature {C}
  9.3,                                    ! Daily Dry-Bulb Temperature Range {deltaC}
  20.6,                                   ! Humidity Indicating Conditions at Maximum Dry-Bulb {BasedOnField A3}
  98769,                                  ! Barometric Pressure {Pa}
  5.7,                                    ! Wind Speed {m/s}
  240,                                    ! Wind Direction {deg}
  0,                                      ! Sky Clearness
  0,                                      ! Rain Indicator
  0,                                      ! Snow Indicator
  21,                                     ! Day of Month
  7,                                      ! Month
  SummerDesignDay,                        ! Day Type
  0,                                      ! Daylight Saving Time Indicator
  Dewpoint,                               ! Humidity Indicating Type
  ,                                       ! Humidity Indicating Day Schedule Name
  DefaultMultipliers,                     ! Dry-Bulb Temperature Range Modifier Type
  ,                                       ! Dry-Bulb Temperature Range Modifier Schedule Name
  ASHRAETau,                              ! Solar Model Indicator
  ,                                       ! Beam Solar Day Schedule Name
  ,                                       ! Diffuse Solar Day Schedule Name
  0.462,                                  ! ASHRAE Taub {dimensionless}
  2.001;                                  ! ASHRAE Taud {dimensionless}

OS:ComponentData,
  {3a3f0935-41f0-440c-959a-58a88fc57145}, ! Handle
  Component Data 1,                       ! Name
  {649936f8-e595-4798-a23b-113d6b59faeb}, ! UUID
  {eb3b2aa5-1992-4a16-a3da-3d6b885b0e11}, ! Version UUID
  1366309609,                             ! Creation Timestamp
  1366309609,                             ! Version Timestamp
  {4500c9ee-30ea-4783-8e21-15124693dd22}; ! Name of Object 1

