
OS:Version,
  {7b487199-145d-476f-9f89-7b8e44790ec8}, ! Handle
  0.9.3;                                  ! Version Identifier

OS:SizingPeriod:DesignDay,
  {1d690501-587d-44ce-b0d3-788bcf350246}, ! Handle
  Charlotte Ann Clg 2% Condns DP=>MDB,    ! Name
  26.2,                                   ! Maximum Dry-Bulb Temperature {C}
  10.1,                                   ! Daily Dry-Bulb Temperature Range {deltaC}
  22.4,                                   ! Humidity Indicating Conditions at Maximum Dry-Bulb {BasedOnField A3}
  98545,                                  ! Barometric Pressure {Pa}
  3.3,                                    ! Wind Speed {m/s}
  240,                                    ! Wind Direction {deg}
  0,                                      ! Sky Clearness
  0,                                      ! Rain Indicator
  0,                                      ! Snow Indicator
  21,                                     ! Day of Month
  7,                                      ! Month
  SummerDesignDay,                        ! Day Type
  0,                                      ! Daylight Saving Time Indicator
  Dewpoint,                               ! Humidity Indicating Type
  ,                                       ! Humidity Indicating Day Schedule Name
  DefaultMultipliers,                     ! Dry-Bulb Temperature Range Modifier Type
  ,                                       ! Dry-Bulb Temperature Range Modifier Schedule Name
  ASHRAETau,                              ! Solar Model Indicator
  ,                                       ! Beam Solar Day Schedule Name
  ,                                       ! Diffuse Solar Day Schedule Name
  0.557,                                  ! ASHRAE Taub {dimensionless}
  1.762;                                  ! ASHRAE Taud {dimensionless}

OS:ComponentData,
  {e596c2cb-33d2-4d17-bc20-ea91bf54d1e7}, ! Handle
  Component Data 1,                       ! Name
  {b79feba6-f30c-4ef3-a18f-b86ea296838d}, ! UUID
  {1c5ce4a5-71eb-4199-a908-0464d52748d5}, ! Version UUID
  1366308885,                             ! Creation Timestamp
  1366308885,                             ! Version Timestamp
  {1d690501-587d-44ce-b0d3-788bcf350246}; ! Name of Object 1

