
OS:Version,
  {59c31257-f31f-48b1-b094-7dafc9db806b}, ! Handle
  0.9.3;                                  ! Version Identifier

OS:SizingPeriod:DesignDay,
  {24baf805-2c77-4874-95fd-0bfda3625eb4}, ! Handle
  LUBBOCK Ann Clg .4% Condns Enth=>MDB,   ! Name
  30.7,                                   ! Maximum Dry-Bulb Temperature {C}
  13.1,                                   ! Daily Dry-Bulb Temperature Range {deltaC}
  72400,                                  ! Humidity Indicating Conditions at Maximum Dry-Bulb {BasedOnField A3}
  90005,                                  ! Barometric Pressure {Pa}
  6.4,                                    ! Wind Speed {m/s}
  170,                                    ! Wind Direction {deg}
  0,                                      ! Sky Clearness
  0,                                      ! Rain Indicator
  0,                                      ! Snow Indicator
  21,                                     ! Day of Month
  7,                                      ! Month
  SummerDesignDay,                        ! Day Type
  0,                                      ! Daylight Saving Time Indicator
  Enthalpy,                               ! Humidity Indicating Type
  ,                                       ! Humidity Indicating Day Schedule Name
  DefaultMultipliers,                     ! Dry-Bulb Temperature Range Modifier Type
  ,                                       ! Dry-Bulb Temperature Range Modifier Schedule Name
  ASHRAETau,                              ! Solar Model Indicator
  ,                                       ! Beam Solar Day Schedule Name
  ,                                       ! Diffuse Solar Day Schedule Name
  0.396,                                  ! ASHRAE Taub {dimensionless}
  2.241;                                  ! ASHRAE Taud {dimensionless}

OS:ComponentData,
  {61a48cfe-d77c-4fd5-9114-4b74f317a073}, ! Handle
  Component Data 1,                       ! Name
  {c6956ce2-96df-4e1a-a92e-8d76aa5fbb35}, ! UUID
  {4a679d79-a96a-45cc-8311-5bdd14c5a5df}, ! Version UUID
  1366310792,                             ! Creation Timestamp
  1366310792,                             ! Version Timestamp
  {24baf805-2c77-4874-95fd-0bfda3625eb4}; ! Name of Object 1

