
OS:Version,
  {2a740abf-505b-4e6c-8195-37cdd429401a}, ! Handle
  0.9.3;                                  ! Version Identifier

OS:SizingPeriod:DesignDay,
  {c74c8994-afb4-4482-b07f-222ad3d2ac84}, ! Handle
  Bakersfield Meadows Field Ann Clg 2% Condns DP=>MDB, ! Name
  28.9,                                   ! Maximum Dry-Bulb Temperature {C}
  14.9,                                   ! Daily Dry-Bulb Temperature Range {deltaC}
  16.4,                                   ! Humidity Indicating Conditions at Maximum Dry-Bulb {BasedOnField A3}
  99548,                                  ! Barometric Pressure {Pa}
  5.3,                                    ! Wind Speed {m/s}
  300,                                    ! Wind Direction {deg}
  0,                                      ! Sky Clearness
  0,                                      ! Rain Indicator
  0,                                      ! Snow Indicator
  21,                                     ! Day of Month
  7,                                      ! Month
  SummerDesignDay,                        ! Day Type
  0,                                      ! Daylight Saving Time Indicator
  Dewpoint,                               ! Humidity Indicating Type
  ,                                       ! Humidity Indicating Day Schedule Name
  DefaultMultipliers,                     ! Dry-Bulb Temperature Range Modifier Type
  ,                                       ! Dry-Bulb Temperature Range Modifier Schedule Name
  ASHRAETau,                              ! Solar Model Indicator
  ,                                       ! Beam Solar Day Schedule Name
  ,                                       ! Diffuse Solar Day Schedule Name
  0.438,                                  ! ASHRAE Taub {dimensionless}
  2.106;                                  ! ASHRAE Taud {dimensionless}

OS:ComponentData,
  {7082deb1-f641-48ca-8412-09fe5c9890c8}, ! Handle
  Component Data 1,                       ! Name
  {17490d35-152a-4055-84ff-2958903bdb4a}, ! UUID
  {2495ae7a-b021-4db6-84ae-c64515c11e34}, ! Version UUID
  1366306366,                             ! Creation Timestamp
  1366306366,                             ! Version Timestamp
  {c74c8994-afb4-4482-b07f-222ad3d2ac84}; ! Name of Object 1

