
OS:Version,
  {0bb3ea36-81e3-486c-8e29-dd2a8e48d7dd}, ! Handle
  0.9.3;                                  ! Version Identifier

OS:SizingPeriod:DesignDay,
  {16f2dbf7-f752-4496-9930-59a1fba7e9d4}, ! Handle
  Arcata Airport Ann Clg 1% Condns DP=>MDB, ! Name
  16.8,                                   ! Maximum Dry-Bulb Temperature {C}
  6.5,                                    ! Daily Dry-Bulb Temperature Range {deltaC}
  15.1,                                   ! Humidity Indicating Conditions at Maximum Dry-Bulb {BasedOnField A3}
  100582,                                 ! Barometric Pressure {Pa}
  4.3,                                    ! Wind Speed {m/s}
  320,                                    ! Wind Direction {deg}
  0,                                      ! Sky Clearness
  0,                                      ! Rain Indicator
  0,                                      ! Snow Indicator
  21,                                     ! Day of Month
  8,                                      ! Month
  SummerDesignDay,                        ! Day Type
  0,                                      ! Daylight Saving Time Indicator
  Dewpoint,                               ! Humidity Indicating Type
  ,                                       ! Humidity Indicating Day Schedule Name
  DefaultMultipliers,                     ! Dry-Bulb Temperature Range Modifier Type
  ,                                       ! Dry-Bulb Temperature Range Modifier Schedule Name
  ASHRAETau,                              ! Solar Model Indicator
  ,                                       ! Beam Solar Day Schedule Name
  ,                                       ! Diffuse Solar Day Schedule Name
  0.365,                                  ! ASHRAE Taub {dimensionless}
  2.513;                                  ! ASHRAE Taud {dimensionless}

OS:ComponentData,
  {ef292338-3267-49a5-af80-e8fb907eaf1a}, ! Handle
  Component Data 1,                       ! Name
  {4e45b16a-110c-49a5-a314-a973f36d448c}, ! UUID
  {66edffb1-3895-465a-8651-b29593e267ef}, ! Version UUID
  1366306355,                             ! Creation Timestamp
  1366306355,                             ! Version Timestamp
  {16f2dbf7-f752-4496-9930-59a1fba7e9d4}; ! Name of Object 1

