
OS:Version,
  {56f70c9f-379b-40b8-bf4c-9c9510b80db8}, ! Handle
  0.9.3;                                  ! Version Identifier

OS:SizingPeriod:DesignDay,
  {90162466-9059-4f5e-b83f-b58d7b6bc7c4}, ! Handle
  Louisville Standiford Field Ann Clg 2% Condns DP=>MDB, ! Name
  27.6,                                   ! Maximum Dry-Bulb Temperature {C}
  9.7,                                    ! Daily Dry-Bulb Temperature Range {deltaC}
  23,                                     ! Humidity Indicating Conditions at Maximum Dry-Bulb {BasedOnField A3}
  99571,                                  ! Barometric Pressure {Pa}
  4.2,                                    ! Wind Speed {m/s}
  240,                                    ! Wind Direction {deg}
  0,                                      ! Sky Clearness
  0,                                      ! Rain Indicator
  0,                                      ! Snow Indicator
  21,                                     ! Day of Month
  7,                                      ! Month
  SummerDesignDay,                        ! Day Type
  0,                                      ! Daylight Saving Time Indicator
  Dewpoint,                               ! Humidity Indicating Type
  ,                                       ! Humidity Indicating Day Schedule Name
  DefaultMultipliers,                     ! Dry-Bulb Temperature Range Modifier Type
  ,                                       ! Dry-Bulb Temperature Range Modifier Schedule Name
  ASHRAETau,                              ! Solar Model Indicator
  ,                                       ! Beam Solar Day Schedule Name
  ,                                       ! Diffuse Solar Day Schedule Name
  0.51,                                   ! ASHRAE Taub {dimensionless}
  1.872;                                  ! ASHRAE Taud {dimensionless}

OS:ComponentData,
  {79b8fe24-7264-4913-a1ba-de27031e23dd}, ! Handle
  Component Data 1,                       ! Name
  {007f6a38-be05-4e94-a9e8-e227332250fe}, ! UUID
  {6e6f188f-1b71-4aa1-88b6-75d8cb2e2fbf}, ! Version UUID
  1366307672,                             ! Creation Timestamp
  1366307672,                             ! Version Timestamp
  {90162466-9059-4f5e-b83f-b58d7b6bc7c4}; ! Name of Object 1

