
OS:Version,
  {f78b8386-f546-43e4-b4b2-f926cf6b3e20}, ! Handle
  0.9.3;                                  ! Version Identifier

OS:SizingPeriod:DesignDay,
  {aaa8a7be-e97e-45ba-bd4f-23a95948dff9}, ! Handle
  Billings Logan IntL Arpt Ann Clg .4% Condns DP=>MDB, ! Name
  22.3,                                   ! Maximum Dry-Bulb Temperature {C}
  14.5,                                   ! Daily Dry-Bulb Temperature Range {deltaC}
  15.7,                                   ! Humidity Indicating Conditions at Maximum Dry-Bulb {BasedOnField A3}
  88930,                                  ! Barometric Pressure {Pa}
  4.2,                                    ! Wind Speed {m/s}
  50,                                     ! Wind Direction {deg}
  0,                                      ! Sky Clearness
  0,                                      ! Rain Indicator
  0,                                      ! Snow Indicator
  21,                                     ! Day of Month
  7,                                      ! Month
  SummerDesignDay,                        ! Day Type
  0,                                      ! Daylight Saving Time Indicator
  Dewpoint,                               ! Humidity Indicating Type
  ,                                       ! Humidity Indicating Day Schedule Name
  DefaultMultipliers,                     ! Dry-Bulb Temperature Range Modifier Type
  ,                                       ! Dry-Bulb Temperature Range Modifier Schedule Name
  ASHRAETau,                              ! Solar Model Indicator
  ,                                       ! Beam Solar Day Schedule Name
  ,                                       ! Diffuse Solar Day Schedule Name
  0.405,                                  ! ASHRAE Taub {dimensionless}
  2.084;                                  ! ASHRAE Taud {dimensionless}

OS:ComponentData,
  {326c7b27-1ca2-425c-9360-354f13da03db}, ! Handle
  Component Data 1,                       ! Name
  {994bfcbe-c913-4170-89fd-b1b146471a45}, ! UUID
  {fa01f418-18ef-4f36-902b-70364c9b1198}, ! Version UUID
  1366308706,                             ! Creation Timestamp
  1366308706,                             ! Version Timestamp
  {aaa8a7be-e97e-45ba-bd4f-23a95948dff9}; ! Name of Object 1

