
OS:Version,
  {903d271c-8b00-4abb-a3a7-44201b5db8c8}, ! Handle
  0.9.3;                                  ! Version Identifier

OS:SizingPeriod:DesignDay,
  {e6a36bde-004c-4e6c-82b8-74883097f6f2}, ! Handle
  Homer Ann Clg .4% Condns Enth=>MDB,     ! Name
  17.5,                                   ! Maximum Dry-Bulb Temperature {C}
  6.4,                                    ! Daily Dry-Bulb Temperature Range {deltaC}
  40200,                                  ! Humidity Indicating Conditions at Maximum Dry-Bulb {BasedOnField A3}
  101025,                                 ! Barometric Pressure {Pa}
  4.4,                                    ! Wind Speed {m/s}
  250,                                    ! Wind Direction {deg}
  0,                                      ! Sky Clearness
  0,                                      ! Rain Indicator
  0,                                      ! Snow Indicator
  21,                                     ! Day of Month
  7,                                      ! Month
  SummerDesignDay,                        ! Day Type
  0,                                      ! Daylight Saving Time Indicator
  Enthalpy,                               ! Humidity Indicating Type
  ,                                       ! Humidity Indicating Day Schedule Name
  DefaultMultipliers,                     ! Dry-Bulb Temperature Range Modifier Type
  ,                                       ! Dry-Bulb Temperature Range Modifier Schedule Name
  ASHRAETau,                              ! Solar Model Indicator
  ,                                       ! Beam Solar Day Schedule Name
  ,                                       ! Diffuse Solar Day Schedule Name
  0.376,                                  ! ASHRAE Taub {dimensionless}
  2.236;                                  ! ASHRAE Taud {dimensionless}

OS:ComponentData,
  {2dcc3e8f-6199-46e9-8915-67caf85d9704}, ! Handle
  Component Data 1,                       ! Name
  {ed7d8f51-f854-4cb5-b6a9-9678f6b95f3a}, ! UUID
  {b2e07143-7377-4cd8-bb8f-3ae7432bcdc5}, ! Version UUID
  1366305305,                             ! Creation Timestamp
  1366305305,                             ! Version Timestamp
  {e6a36bde-004c-4e6c-82b8-74883097f6f2}; ! Name of Object 1

