
OS:Version,
  {626f2495-3e46-438e-a437-96eb67eb8e96}, ! Handle
  0.9.3;                                  ! Version Identifier

OS:SizingPeriod:DesignDay,
  {6d509148-e670-43ff-a815-eef19ebe28f1}, ! Handle
  La Crosse Ann Clg 2% Condns Enth=>MDB,  ! Name
  28.4,                                   ! Maximum Dry-Bulb Temperature {C}
  11.1,                                   ! Daily Dry-Bulb Temperature Range {deltaC}
  70700,                                  ! Humidity Indicating Conditions at Maximum Dry-Bulb {BasedOnField A3}
  98922,                                  ! Barometric Pressure {Pa}
  5.4,                                    ! Wind Speed {m/s}
  180,                                    ! Wind Direction {deg}
  0,                                      ! Sky Clearness
  0,                                      ! Rain Indicator
  0,                                      ! Snow Indicator
  21,                                     ! Day of Month
  7,                                      ! Month
  SummerDesignDay,                        ! Day Type
  0,                                      ! Daylight Saving Time Indicator
  Enthalpy,                               ! Humidity Indicating Type
  ,                                       ! Humidity Indicating Day Schedule Name
  DefaultMultipliers,                     ! Dry-Bulb Temperature Range Modifier Type
  ,                                       ! Dry-Bulb Temperature Range Modifier Schedule Name
  ASHRAETau,                              ! Solar Model Indicator
  ,                                       ! Beam Solar Day Schedule Name
  ,                                       ! Diffuse Solar Day Schedule Name
  0.431,                                  ! ASHRAE Taub {dimensionless}
  2.126;                                  ! ASHRAE Taud {dimensionless}

OS:ComponentData,
  {cd39fe84-724d-4fe6-a273-e8d0752b15d9}, ! Handle
  Component Data 1,                       ! Name
  {1f49f762-8832-4f50-8945-a0106b76d2b3}, ! UUID
  {91ca5a7c-80cc-4c56-bb83-7d253117a5ba}, ! Version UUID
  1366311510,                             ! Creation Timestamp
  1366311510,                             ! Version Timestamp
  {6d509148-e670-43ff-a815-eef19ebe28f1}; ! Name of Object 1

