
OS:Version,
  {76fbba71-6e3d-4063-ba64-e46bbc526d46}, ! Handle
  0.9.3;                                  ! Version Identifier

OS:SizingPeriod:DesignDay,
  {dd0d9ad8-ff1f-439b-86ae-c629bcd1510f}, ! Handle
  Houston/Intercontinent Ann Clg 2% Condns WB=>MDB, ! Name
  30.8,                                   ! Maximum Dry-Bulb Temperature {C}
  10.1,                                   ! Daily Dry-Bulb Temperature Range {deltaC}
  25.9,                                   ! Humidity Indicating Conditions at Maximum Dry-Bulb {BasedOnField A3}
  100929,                                 ! Barometric Pressure {Pa}
  3.5,                                    ! Wind Speed {m/s}
  170,                                    ! Wind Direction {deg}
  0,                                      ! Sky Clearness
  0,                                      ! Rain Indicator
  0,                                      ! Snow Indicator
  21,                                     ! Day of Month
  7,                                      ! Month
  SummerDesignDay,                        ! Day Type
  0,                                      ! Daylight Saving Time Indicator
  Wetbulb,                                ! Humidity Indicating Type
  ,                                       ! Humidity Indicating Day Schedule Name
  DefaultMultipliers,                     ! Dry-Bulb Temperature Range Modifier Type
  ,                                       ! Dry-Bulb Temperature Range Modifier Schedule Name
  ASHRAETau,                              ! Solar Model Indicator
  ,                                       ! Beam Solar Day Schedule Name
  ,                                       ! Diffuse Solar Day Schedule Name
  0.499,                                  ! ASHRAE Taub {dimensionless}
  1.97;                                   ! ASHRAE Taud {dimensionless}

OS:ComponentData,
  {0d6c27c9-d944-4529-9822-62287233f250}, ! Handle
  Component Data 1,                       ! Name
  {e071ceeb-40bf-4c26-a1d1-4fbbfe02f894}, ! UUID
  {e0e4c2f8-1ca0-44e7-9b34-373813a45ae5}, ! Version UUID
  1366310740,                             ! Creation Timestamp
  1366310740,                             ! Version Timestamp
  {dd0d9ad8-ff1f-439b-86ae-c629bcd1510f}; ! Name of Object 1

