
OS:Version,
  {56f580d0-3cfc-42c7-8224-93f0f6baa35c}, ! Handle
  0.9.3;                                  ! Version Identifier

OS:SizingPeriod:DesignDay,
  {7c49b962-6446-4cd7-a682-ef4a53b4e07a}, ! Handle
  Laconia Muni  Awos Ann Hum_n 99% Condns DP=>MCDB, ! Name
  -16.3,                                  ! Maximum Dry-Bulb Temperature {C}
  0,                                      ! Daily Dry-Bulb Temperature Range {deltaC}
  -26.2,                                  ! Humidity Indicating Conditions at Maximum Dry-Bulb {BasedOnField A3}
  99347,                                  ! Barometric Pressure {Pa}
  2.7,                                    ! Wind Speed {m/s}
  260,                                    ! Wind Direction {deg}
  0,                                      ! Sky Clearness
  0,                                      ! Rain Indicator
  0,                                      ! Snow Indicator
  21,                                     ! Day of Month
  1,                                      ! Month
  WinterDesignDay,                        ! Day Type
  0,                                      ! Daylight Saving Time Indicator
  Dewpoint,                               ! Humidity Indicating Type
  ,                                       ! Humidity Indicating Day Schedule Name
  DefaultMultipliers,                     ! Dry-Bulb Temperature Range Modifier Type
  ,                                       ! Dry-Bulb Temperature Range Modifier Schedule Name
  ASHRAEClearSky;                         ! Solar Model Indicator

OS:ComponentData,
  {2d1c6321-f498-4fd2-bd4d-3431505bccaf}, ! Handle
  Component Data 1,                       ! Name
  {f85fd80b-6e63-44b1-b771-e163e65fd3c2}, ! UUID
  {ed410b79-6c63-4955-b619-35964941d104}, ! Version UUID
  1366309246,                             ! Creation Timestamp
  1366309246,                             ! Version Timestamp
  {7c49b962-6446-4cd7-a682-ef4a53b4e07a}; ! Name of Object 1

