
OS:Version,
  {a615569d-eab6-44e6-9695-814bd2a48a92}, ! Handle
  0.9.3;                                  ! Version Identifier

OS:SizingPeriod:DesignDay,
  {9ab986d0-948e-45da-8716-dc6d8842b030}, ! Handle
  Covington/Cincinnati O Ann Htg 99.6% Condns DB, ! Name
  -16.1,                                  ! Maximum Dry-Bulb Temperature {C}
  0,                                      ! Daily Dry-Bulb Temperature Range {deltaC}
  -16.1,                                  ! Humidity Indicating Conditions at Maximum Dry-Bulb {BasedOnField A3}
  98158,                                  ! Barometric Pressure {Pa}
  3.8,                                    ! Wind Speed {m/s}
  280,                                    ! Wind Direction {deg}
  0,                                      ! Sky Clearness
  0,                                      ! Rain Indicator
  0,                                      ! Snow Indicator
  21,                                     ! Day of Month
  1,                                      ! Month
  WinterDesignDay,                        ! Day Type
  0,                                      ! Daylight Saving Time Indicator
  Wetbulb,                                ! Humidity Indicating Type
  ,                                       ! Humidity Indicating Day Schedule Name
  DefaultMultipliers,                     ! Dry-Bulb Temperature Range Modifier Type
  ,                                       ! Dry-Bulb Temperature Range Modifier Schedule Name
  ASHRAEClearSky;                         ! Solar Model Indicator

OS:ComponentData,
  {db574ec4-f8fc-4813-a193-f2396632e7b6}, ! Handle
  Component Data 1,                       ! Name
  {a7f55555-ca86-477e-8fd8-170c8c50e37d}, ! UUID
  {9a44bfbb-e47a-4187-8979-3afc0fa0e646}, ! Version UUID
  1366307614,                             ! Creation Timestamp
  1366307614,                             ! Version Timestamp
  {9ab986d0-948e-45da-8716-dc6d8842b030}; ! Name of Object 1

