
OS:Version,
  {80b9e27d-0bb0-4f87-9a4b-9a25ee15e02c}, ! Handle
  0.9.3;                                  ! Version Identifier

OS:SizingPeriod:DesignDay,
  {40ca10a7-177a-4364-b8c9-f01a6b02d38a}, ! Handle
  Aurora Buckley Field Angb Ann Htg Wind 99.6% Condns WS=>MCDB, ! Name
  2,                                      ! Maximum Dry-Bulb Temperature {C}
  0,                                      ! Daily Dry-Bulb Temperature Range {deltaC}
  2,                                      ! Humidity Indicating Conditions at Maximum Dry-Bulb {BasedOnField A3}
  82237,                                  ! Barometric Pressure {Pa}
  11.9,                                   ! Wind Speed {m/s}
  180,                                    ! Wind Direction {deg}
  0,                                      ! Sky Clearness
  0,                                      ! Rain Indicator
  0,                                      ! Snow Indicator
  21,                                     ! Day of Month
  12,                                     ! Month
  WinterDesignDay,                        ! Day Type
  0,                                      ! Daylight Saving Time Indicator
  Wetbulb,                                ! Humidity Indicating Type
  ,                                       ! Humidity Indicating Day Schedule Name
  DefaultMultipliers,                     ! Dry-Bulb Temperature Range Modifier Type
  ,                                       ! Dry-Bulb Temperature Range Modifier Schedule Name
  ASHRAEClearSky;                         ! Solar Model Indicator

OS:ComponentData,
  {0c845592-a611-4f45-9f65-f40de8548b60}, ! Handle
  Component Data 1,                       ! Name
  {3c7284ab-e558-42b8-9d6a-6992caa6915e}, ! UUID
  {d7bda165-09fd-432b-939e-4e6026ae8077}, ! Version UUID
  1366306653,                             ! Creation Timestamp
  1366306653,                             ! Version Timestamp
  {40ca10a7-177a-4364-b8c9-f01a6b02d38a}; ! Name of Object 1

