
OS:Version,
  {2f00d2da-9d51-4c11-acff-f6fbad0d1913}, ! Handle
  0.9.3;                                  ! Version Identifier

OS:SizingPeriod:DesignDay,
  {8cd21d1c-effb-47dd-b754-b5ef356bf223}, ! Handle
  Harlingen Rio Grande Valley I Ann Clg 1% Condns DP=>MDB, ! Name
  28.6,                                   ! Maximum Dry-Bulb Temperature {C}
  11,                                     ! Daily Dry-Bulb Temperature Range {deltaC}
  26,                                     ! Humidity Indicating Conditions at Maximum Dry-Bulb {BasedOnField A3}
  101205,                                 ! Barometric Pressure {Pa}
  7.3,                                    ! Wind Speed {m/s}
  150,                                    ! Wind Direction {deg}
  0,                                      ! Sky Clearness
  0,                                      ! Rain Indicator
  0,                                      ! Snow Indicator
  21,                                     ! Day of Month
  7,                                      ! Month
  SummerDesignDay,                        ! Day Type
  0,                                      ! Daylight Saving Time Indicator
  Dewpoint,                               ! Humidity Indicating Type
  ,                                       ! Humidity Indicating Day Schedule Name
  DefaultMultipliers,                     ! Dry-Bulb Temperature Range Modifier Type
  ,                                       ! Dry-Bulb Temperature Range Modifier Schedule Name
  ASHRAETau,                              ! Solar Model Indicator
  ,                                       ! Beam Solar Day Schedule Name
  ,                                       ! Diffuse Solar Day Schedule Name
  0.46,                                   ! ASHRAE Taub {dimensionless}
  2.113;                                  ! ASHRAE Taud {dimensionless}

OS:ComponentData,
  {691dd505-0797-4633-bb43-feffcff85c80}, ! Handle
  Component Data 1,                       ! Name
  {cb062146-198b-47db-b5bd-86371b7ac5a7}, ! UUID
  {6f201c91-8193-4a4e-9aa2-5146f4b06889}, ! Version UUID
  1366310732,                             ! Creation Timestamp
  1366310732,                             ! Version Timestamp
  {8cd21d1c-effb-47dd-b754-b5ef356bf223}; ! Name of Object 1

