
OS:Version,
  {692a93da-a709-4467-952e-dd5f226373d5}, ! Handle
  0.9.3;                                  ! Version Identifier

OS:SizingPeriod:DesignDay,
  {bbaac7fa-09be-4536-b4ce-33ca725d4bc0}, ! Handle
  Bluefield Mercer Co  Nrel Ann Hum_n 99.6% Condns DP=>MCDB, ! Name
  -10.6,                                  ! Maximum Dry-Bulb Temperature {C}
  0,                                      ! Daily Dry-Bulb Temperature Range {deltaC}
  -19.9,                                  ! Humidity Indicating Conditions at Maximum Dry-Bulb {BasedOnField A3}
  92043,                                  ! Barometric Pressure {Pa}
  3.2,                                    ! Wind Speed {m/s}
  260,                                    ! Wind Direction {deg}
  0,                                      ! Sky Clearness
  0,                                      ! Rain Indicator
  0,                                      ! Snow Indicator
  21,                                     ! Day of Month
  1,                                      ! Month
  WinterDesignDay,                        ! Day Type
  0,                                      ! Daylight Saving Time Indicator
  Dewpoint,                               ! Humidity Indicating Type
  ,                                       ! Humidity Indicating Day Schedule Name
  DefaultMultipliers,                     ! Dry-Bulb Temperature Range Modifier Type
  ,                                       ! Dry-Bulb Temperature Range Modifier Schedule Name
  ASHRAEClearSky;                         ! Solar Model Indicator

OS:ComponentData,
  {4c076e9e-fcd7-43f3-bbab-66de3f7a71e0}, ! Handle
  Component Data 1,                       ! Name
  {567b3c24-95fd-45d2-b4fc-4f6312e996eb}, ! UUID
  {afabd72c-4464-4396-bfc2-b17fa5647b80}, ! Version UUID
  1366311614,                             ! Creation Timestamp
  1366311614,                             ! Version Timestamp
  {bbaac7fa-09be-4536-b4ce-33ca725d4bc0}; ! Name of Object 1

