
OS:Version,
  {ca24c759-37dc-403e-9a2c-d495350e65ca}, ! Handle
  0.9.3;                                  ! Version Identifier

OS:SizingPeriod:DesignDay,
  {a453100e-de27-4141-aa09-66d31f5e0119}, ! Handle
  BAKERSFIELD Ann Hum_n 99.6% Condns DP=>MCDB, ! Name
  10,                                     ! Maximum Dry-Bulb Temperature {C}
  0,                                      ! Daily Dry-Bulb Temperature Range {deltaC}
  -6.2,                                   ! Humidity Indicating Conditions at Maximum Dry-Bulb {BasedOnField A3}
  99536,                                  ! Barometric Pressure {Pa}
  1.7,                                    ! Wind Speed {m/s}
  90,                                     ! Wind Direction {deg}
  0,                                      ! Sky Clearness
  0,                                      ! Rain Indicator
  0,                                      ! Snow Indicator
  21,                                     ! Day of Month
  12,                                     ! Month
  WinterDesignDay,                        ! Day Type
  0,                                      ! Daylight Saving Time Indicator
  Dewpoint,                               ! Humidity Indicating Type
  ,                                       ! Humidity Indicating Day Schedule Name
  DefaultMultipliers,                     ! Dry-Bulb Temperature Range Modifier Type
  ,                                       ! Dry-Bulb Temperature Range Modifier Schedule Name
  ASHRAEClearSky;                         ! Solar Model Indicator

OS:ComponentData,
  {9b979af6-aa80-456e-9ca6-885a1ae5f0fe}, ! Handle
  Component Data 1,                       ! Name
  {a237ebbc-010a-41f2-a838-7309c8cfd5c2}, ! UUID
  {1dc347cd-08a8-4006-a494-1cd627014943}, ! Version UUID
  1366306368,                             ! Creation Timestamp
  1366306368,                             ! Version Timestamp
  {a453100e-de27-4141-aa09-66d31f5e0119}; ! Name of Object 1

