
OS:Version,
  {8700942a-c0d6-4fbd-ba68-ff4176d6656f}, ! Handle
  0.9.3;                                  ! Version Identifier

OS:SizingPeriod:DesignDay,
  {00c9dc19-fc5d-422c-8105-7dc86cd70a9a}, ! Handle
  Honolulu Intl Arpt Ann Clg 2% Condns DP=>MDB, ! Name
  26.8,                                   ! Maximum Dry-Bulb Temperature {C}
  7.1,                                    ! Daily Dry-Bulb Temperature Range {deltaC}
  22.7,                                   ! Humidity Indicating Conditions at Maximum Dry-Bulb {BasedOnField A3}
  101301,                                 ! Barometric Pressure {Pa}
  6.7,                                    ! Wind Speed {m/s}
  60,                                     ! Wind Direction {deg}
  0,                                      ! Sky Clearness
  0,                                      ! Rain Indicator
  0,                                      ! Snow Indicator
  21,                                     ! Day of Month
  8,                                      ! Month
  SummerDesignDay,                        ! Day Type
  0,                                      ! Daylight Saving Time Indicator
  Dewpoint,                               ! Humidity Indicating Type
  ,                                       ! Humidity Indicating Day Schedule Name
  DefaultMultipliers,                     ! Dry-Bulb Temperature Range Modifier Type
  ,                                       ! Dry-Bulb Temperature Range Modifier Schedule Name
  ASHRAETau,                              ! Solar Model Indicator
  ,                                       ! Beam Solar Day Schedule Name
  ,                                       ! Diffuse Solar Day Schedule Name
  0.382,                                  ! ASHRAE Taub {dimensionless}
  2.521;                                  ! ASHRAE Taud {dimensionless}

OS:ComponentData,
  {7b936dbf-fbc5-4995-877f-2b8e35f1dcb8}, ! Handle
  Component Data 1,                       ! Name
  {56b475f0-7d66-4a80-abc0-6f831e0201ed}, ! UUID
  {e6e4a2e3-af1a-4605-8896-308926a99709}, ! Version UUID
  1366307094,                             ! Creation Timestamp
  1366307094,                             ! Version Timestamp
  {00c9dc19-fc5d-422c-8105-7dc86cd70a9a}; ! Name of Object 1

