
OS:Version,
  {b775aa2b-ec8e-4aef-a4a6-0b0213db5cf3}, ! Handle
  0.9.3;                                  ! Version Identifier

OS:SizingPeriod:DesignDay,
  {37476713-ca6f-4b8d-b7dc-397b208b0e73}, ! Handle
  Cherry Point MCAS Ann Hum_n 99.6% Condns DP=>MCDB, ! Name
  -0.8,                                   ! Maximum Dry-Bulb Temperature {C}
  0,                                      ! Daily Dry-Bulb Temperature Range {deltaC}
  -14.2,                                  ! Humidity Indicating Conditions at Maximum Dry-Bulb {BasedOnField A3}
  101193,                                 ! Barometric Pressure {Pa}
  2.4,                                    ! Wind Speed {m/s}
  10,                                     ! Wind Direction {deg}
  0,                                      ! Sky Clearness
  0,                                      ! Rain Indicator
  0,                                      ! Snow Indicator
  21,                                     ! Day of Month
  1,                                      ! Month
  WinterDesignDay,                        ! Day Type
  0,                                      ! Daylight Saving Time Indicator
  Dewpoint,                               ! Humidity Indicating Type
  ,                                       ! Humidity Indicating Day Schedule Name
  DefaultMultipliers,                     ! Dry-Bulb Temperature Range Modifier Type
  ,                                       ! Dry-Bulb Temperature Range Modifier Schedule Name
  ASHRAEClearSky;                         ! Solar Model Indicator

OS:ComponentData,
  {47f5050e-3845-4c35-b96d-62ae781da9bf}, ! Handle
  Component Data 1,                       ! Name
  {804820b7-c546-4b56-ba90-b85b8562dfa6}, ! UUID
  {e957768a-8e94-4aec-9c36-06a529e8dccf}, ! Version UUID
  1366308897,                             ! Creation Timestamp
  1366308897,                             ! Version Timestamp
  {37476713-ca6f-4b8d-b7dc-397b208b0e73}; ! Name of Object 1

