
OS:Version,
  {e49e0ef7-fa20-4cdf-bf91-e992b67f9d91}, ! Handle
  0.9.3;                                  ! Version Identifier

OS:SizingPeriod:DesignDay,
  {2909536e-4ec7-4f03-882d-eba1bd8bceaa}, ! Handle
  Honolulu Ann Clg 1% Condns DB=>MWB,     ! Name
  31.7,                                   ! Maximum Dry-Bulb Temperature {C}
  7.1,                                    ! Daily Dry-Bulb Temperature Range {deltaC}
  23.1,                                   ! Humidity Indicating Conditions at Maximum Dry-Bulb {BasedOnField A3}
  101265,                                 ! Barometric Pressure {Pa}
  6.7,                                    ! Wind Speed {m/s}
  60,                                     ! Wind Direction {deg}
  0,                                      ! Sky Clearness
  0,                                      ! Rain Indicator
  0,                                      ! Snow Indicator
  21,                                     ! Day of Month
  8,                                      ! Month
  SummerDesignDay,                        ! Day Type
  0,                                      ! Daylight Saving Time Indicator
  Wetbulb,                                ! Humidity Indicating Type
  ,                                       ! Humidity Indicating Day Schedule Name
  DefaultMultipliers,                     ! Dry-Bulb Temperature Range Modifier Type
  ,                                       ! Dry-Bulb Temperature Range Modifier Schedule Name
  ASHRAETau,                              ! Solar Model Indicator
  ,                                       ! Beam Solar Day Schedule Name
  ,                                       ! Diffuse Solar Day Schedule Name
  0.382,                                  ! ASHRAE Taub {dimensionless}
  2.521;                                  ! ASHRAE Taud {dimensionless}

OS:ComponentData,
  {3889a7ef-9634-4ed2-8515-aa000784d232}, ! Handle
  Component Data 1,                       ! Name
  {79e20430-1f35-426c-b76d-fbf472ae1465}, ! UUID
  {470631b7-871c-4258-bf3c-ba87c9ded645}, ! Version UUID
  1366307090,                             ! Creation Timestamp
  1366307090,                             ! Version Timestamp
  {2909536e-4ec7-4f03-882d-eba1bd8bceaa}; ! Name of Object 1

