
OS:Version,
  {342fcb7e-4164-4f78-a8e9-eec7db2a7556}, ! Handle
  0.9.3;                                  ! Version Identifier

OS:SizingPeriod:DesignDay,
  {b84329ee-8ab5-4841-8150-0c21ec97e2b0}, ! Handle
  Huron Ann Htg Wind 99% Condns WS=>MCDB, ! Name
  -9.4,                                   ! Maximum Dry-Bulb Temperature {C}
  0,                                      ! Daily Dry-Bulb Temperature Range {deltaC}
  -9.4,                                   ! Humidity Indicating Conditions at Maximum Dry-Bulb {BasedOnField A3}
  96692,                                  ! Barometric Pressure {Pa}
  13,                                     ! Wind Speed {m/s}
  320,                                    ! Wind Direction {deg}
  0,                                      ! Sky Clearness
  0,                                      ! Rain Indicator
  0,                                      ! Snow Indicator
  21,                                     ! Day of Month
  1,                                      ! Month
  WinterDesignDay,                        ! Day Type
  0,                                      ! Daylight Saving Time Indicator
  Wetbulb,                                ! Humidity Indicating Type
  ,                                       ! Humidity Indicating Day Schedule Name
  DefaultMultipliers,                     ! Dry-Bulb Temperature Range Modifier Type
  ,                                       ! Dry-Bulb Temperature Range Modifier Schedule Name
  ASHRAEClearSky;                         ! Solar Model Indicator

OS:ComponentData,
  {968f42eb-6803-4be8-ae03-9272b9e347e5}, ! Handle
  Component Data 1,                       ! Name
  {d43fff27-981d-42d5-a14a-2466689a69fe}, ! UUID
  {676e50f9-fd91-448b-826a-66b4d26aec7c}, ! Version UUID
  1366310403,                             ! Creation Timestamp
  1366310403,                             ! Version Timestamp
  {b84329ee-8ab5-4841-8150-0c21ec97e2b0}; ! Name of Object 1

