
OS:Version,
  {1f5ea7db-1595-4e6b-b84d-77d98bed111f}, ! Handle
  0.9.3;                                  ! Version Identifier

OS:SizingPeriod:DesignDay,
  {07dd145a-1301-4a17-a959-4cbc061e9e9e}, ! Handle
  Kansas City Downtown Ap Ann Htg 99% Condns DB, ! Name
  -13,                                    ! Maximum Dry-Bulb Temperature {C}
  0,                                      ! Daily Dry-Bulb Temperature Range {deltaC}
  -13,                                    ! Humidity Indicating Conditions at Maximum Dry-Bulb {BasedOnField A3}
  98639,                                  ! Barometric Pressure {Pa}
  4.4,                                    ! Wind Speed {m/s}
  0,                                      ! Wind Direction {deg}
  0,                                      ! Sky Clearness
  0,                                      ! Rain Indicator
  0,                                      ! Snow Indicator
  21,                                     ! Day of Month
  1,                                      ! Month
  WinterDesignDay,                        ! Day Type
  0,                                      ! Daylight Saving Time Indicator
  Wetbulb,                                ! Humidity Indicating Type
  ,                                       ! Humidity Indicating Day Schedule Name
  DefaultMultipliers,                     ! Dry-Bulb Temperature Range Modifier Type
  ,                                       ! Dry-Bulb Temperature Range Modifier Schedule Name
  ASHRAEClearSky;                         ! Solar Model Indicator

OS:ComponentData,
  {316e4dac-e4e1-4801-b3e7-8fa691e95b01}, ! Handle
  Component Data 1,                       ! Name
  {3211667a-87a0-44ac-bcd1-5b3ed6876cd4}, ! UUID
  {1929a160-6676-41be-99e6-d96634c8264b}, ! Version UUID
  1366308525,                             ! Creation Timestamp
  1366308525,                             ! Version Timestamp
  {07dd145a-1301-4a17-a959-4cbc061e9e9e}; ! Name of Object 1

