
OS:Version,
  {01de7c22-c552-4738-a24c-9b2de5c1ab85}, ! Handle
  0.9.3;                                  ! Version Identifier

OS:SizingPeriod:DesignDay,
  {7f4e8702-9b2b-47d7-9e5f-3fd027409a9e}, ! Handle
  Del Rio/Intl Ap Ann Htg Wind 99% Condns WS=>MCDB, ! Name
  12.9,                                   ! Maximum Dry-Bulb Temperature {C}
  0,                                      ! Daily Dry-Bulb Temperature Range {deltaC}
  12.9,                                   ! Humidity Indicating Conditions at Maximum Dry-Bulb {BasedOnField A3}
  97458,                                  ! Barometric Pressure {Pa}
  9.4,                                    ! Wind Speed {m/s}
  310,                                    ! Wind Direction {deg}
  0,                                      ! Sky Clearness
  0,                                      ! Rain Indicator
  0,                                      ! Snow Indicator
  21,                                     ! Day of Month
  12,                                     ! Month
  WinterDesignDay,                        ! Day Type
  0,                                      ! Daylight Saving Time Indicator
  Wetbulb,                                ! Humidity Indicating Type
  ,                                       ! Humidity Indicating Day Schedule Name
  DefaultMultipliers,                     ! Dry-Bulb Temperature Range Modifier Type
  ,                                       ! Dry-Bulb Temperature Range Modifier Schedule Name
  ASHRAEClearSky;                         ! Solar Model Indicator

OS:ComponentData,
  {577e67c7-de63-44f9-914a-6bd5cd349a74}, ! Handle
  Component Data 1,                       ! Name
  {79e29456-5b5d-461b-9a60-4af249007766}, ! UUID
  {60f642cc-a24f-466b-8244-eea1f85ad036}, ! Version UUID
  1366310671,                             ! Creation Timestamp
  1366310671,                             ! Version Timestamp
  {7f4e8702-9b2b-47d7-9e5f-3fd027409a9e}; ! Name of Object 1

