
OS:Version,
  {430a3e32-5935-4522-8648-13a8b39c141b}, ! Handle
  0.9.3;                                  ! Version Identifier

OS:SizingPeriod:DesignDay,
  {d2c73ca6-c126-4d1a-8e24-2043b535ae09}, ! Handle
  Bowling Green Warren Co Ap Ann Clg .4% Condns DB=>MWB, ! Name
  34,                                     ! Maximum Dry-Bulb Temperature {C}
  10.7,                                   ! Daily Dry-Bulb Temperature Range {deltaC}
  24.1,                                   ! Humidity Indicating Conditions at Maximum Dry-Bulb {BasedOnField A3}
  99406,                                  ! Barometric Pressure {Pa}
  3.8,                                    ! Wind Speed {m/s}
  240,                                    ! Wind Direction {deg}
  0,                                      ! Sky Clearness
  0,                                      ! Rain Indicator
  0,                                      ! Snow Indicator
  21,                                     ! Day of Month
  7,                                      ! Month
  SummerDesignDay,                        ! Day Type
  0,                                      ! Daylight Saving Time Indicator
  Wetbulb,                                ! Humidity Indicating Type
  ,                                       ! Humidity Indicating Day Schedule Name
  DefaultMultipliers,                     ! Dry-Bulb Temperature Range Modifier Type
  ,                                       ! Dry-Bulb Temperature Range Modifier Schedule Name
  ASHRAETau,                              ! Solar Model Indicator
  ,                                       ! Beam Solar Day Schedule Name
  ,                                       ! Diffuse Solar Day Schedule Name
  0.527,                                  ! ASHRAE Taub {dimensionless}
  1.838;                                  ! ASHRAE Taud {dimensionless}

OS:ComponentData,
  {fe818677-4c51-44e7-8670-41fb8bf593c6}, ! Handle
  Component Data 1,                       ! Name
  {57515bd3-f3e8-4dc5-962b-f3bb8b689661}, ! UUID
  {b3e309c1-fe1a-4270-804c-6f7cd58c3e2a}, ! Version UUID
  1366307611,                             ! Creation Timestamp
  1366307611,                             ! Version Timestamp
  {d2c73ca6-c126-4d1a-8e24-2043b535ae09}; ! Name of Object 1

