
OS:Version,
  {c1f0c1c5-f95b-4f3e-95c3-4dd6519dcf19}, ! Handle
  0.9.3;                                  ! Version Identifier

OS:SizingPeriod:DesignDay,
  {46b12398-eb15-4f11-bf10-3344fecf08d0}, ! Handle
  Ely Ann Clg 2% Condns DP=>MDB,          ! Name
  17.9,                                   ! Maximum Dry-Bulb Temperature {C}
  20.3,                                   ! Daily Dry-Bulb Temperature Range {deltaC}
  10.2,                                   ! Humidity Indicating Conditions at Maximum Dry-Bulb {BasedOnField A3}
  80397,                                  ! Barometric Pressure {Pa}
  5.3,                                    ! Wind Speed {m/s}
  220,                                    ! Wind Direction {deg}
  0,                                      ! Sky Clearness
  0,                                      ! Rain Indicator
  0,                                      ! Snow Indicator
  21,                                     ! Day of Month
  7,                                      ! Month
  SummerDesignDay,                        ! Day Type
  0,                                      ! Daylight Saving Time Indicator
  Dewpoint,                               ! Humidity Indicating Type
  ,                                       ! Humidity Indicating Day Schedule Name
  DefaultMultipliers,                     ! Dry-Bulb Temperature Range Modifier Type
  ,                                       ! Dry-Bulb Temperature Range Modifier Schedule Name
  ASHRAETau,                              ! Solar Model Indicator
  ,                                       ! Beam Solar Day Schedule Name
  ,                                       ! Diffuse Solar Day Schedule Name
  0.442,                                  ! ASHRAE Taub {dimensionless}
  1.871;                                  ! ASHRAE Taud {dimensionless}

OS:ComponentData,
  {9c78d770-15b5-4739-a788-7c24ea5baca9}, ! Handle
  Component Data 1,                       ! Name
  {6d0c0d81-0dbb-4c1b-a3a6-a7bc1fd6954e}, ! UUID
  {0c3eaa63-9695-443d-8cc9-66e16e3cc5c5}, ! Version UUID
  1366309472,                             ! Creation Timestamp
  1366309472,                             ! Version Timestamp
  {46b12398-eb15-4f11-bf10-3344fecf08d0}; ! Name of Object 1

