
OS:Version,
  {7d00d855-9e01-4236-aff0-4f03982bf09f}, ! Handle
  0.9.3;                                  ! Version Identifier

OS:SizingPeriod:DesignDay,
  {1bbc9082-a7c6-49ba-a446-c06dbabe765a}, ! Handle
  Findlay Airport Ann Clg .4% Condns DP=>MDB, ! Name
  27.9,                                   ! Maximum Dry-Bulb Temperature {C}
  10.6,                                   ! Daily Dry-Bulb Temperature Range {deltaC}
  23.2,                                   ! Humidity Indicating Conditions at Maximum Dry-Bulb {BasedOnField A3}
  98428,                                  ! Barometric Pressure {Pa}
  4.7,                                    ! Wind Speed {m/s}
  230,                                    ! Wind Direction {deg}
  0,                                      ! Sky Clearness
  0,                                      ! Rain Indicator
  0,                                      ! Snow Indicator
  21,                                     ! Day of Month
  7,                                      ! Month
  SummerDesignDay,                        ! Day Type
  0,                                      ! Daylight Saving Time Indicator
  Dewpoint,                               ! Humidity Indicating Type
  ,                                       ! Humidity Indicating Day Schedule Name
  DefaultMultipliers,                     ! Dry-Bulb Temperature Range Modifier Type
  ,                                       ! Dry-Bulb Temperature Range Modifier Schedule Name
  ASHRAETau,                              ! Solar Model Indicator
  ,                                       ! Beam Solar Day Schedule Name
  ,                                       ! Diffuse Solar Day Schedule Name
  0.46,                                   ! ASHRAE Taub {dimensionless}
  2.024;                                  ! ASHRAE Taud {dimensionless}

OS:ComponentData,
  {400e3e04-06ee-476d-a5da-d3945d6cb72f}, ! Handle
  Component Data 1,                       ! Name
  {27fe3b4f-a1a1-452b-a3b0-6b422d41379f}, ! UUID
  {b9426700-8510-46d0-ae19-7930d39a3b34}, ! Version UUID
  1366309826,                             ! Creation Timestamp
  1366309826,                             ! Version Timestamp
  {1bbc9082-a7c6-49ba-a446-c06dbabe765a}; ! Name of Object 1

