
OS:Version,
  {d8061dfa-ca2f-4f8c-a093-49ffab9ee3a2}, ! Handle
  0.9.3;                                  ! Version Identifier

OS:SizingPeriod:DesignDay,
  {f694bf60-d891-4d28-b21e-66ab3c96f7f8}, ! Handle
  Litchfield Muni Ann Htg Wind 99% Condns WS=>MCDB, ! Name
  -7,                                     ! Maximum Dry-Bulb Temperature {C}
  0,                                      ! Daily Dry-Bulb Temperature Range {deltaC}
  -7,                                     ! Humidity Indicating Conditions at Maximum Dry-Bulb {BasedOnField A3}
  97225,                                  ! Barometric Pressure {Pa}
  10.6,                                   ! Wind Speed {m/s}
  310,                                    ! Wind Direction {deg}
  0,                                      ! Sky Clearness
  0,                                      ! Rain Indicator
  0,                                      ! Snow Indicator
  21,                                     ! Day of Month
  1,                                      ! Month
  WinterDesignDay,                        ! Day Type
  0,                                      ! Daylight Saving Time Indicator
  Wetbulb,                                ! Humidity Indicating Type
  ,                                       ! Humidity Indicating Day Schedule Name
  DefaultMultipliers,                     ! Dry-Bulb Temperature Range Modifier Type
  ,                                       ! Dry-Bulb Temperature Range Modifier Schedule Name
  ASHRAEClearSky;                         ! Solar Model Indicator

OS:ComponentData,
  {d4b43e09-ea0a-4a44-92d9-38a04cd4f576}, ! Handle
  Component Data 1,                       ! Name
  {771f9774-7ddf-47cd-bf71-16be00a80718}, ! UUID
  {e236acfe-392d-4e1b-8413-432edf54065e}, ! Version UUID
  1366308281,                             ! Creation Timestamp
  1366308281,                             ! Version Timestamp
  {f694bf60-d891-4d28-b21e-66ab3c96f7f8}; ! Name of Object 1

