
OS:Version,
  {e761277d-0932-4d09-940c-605b999bc94d}, ! Handle
  0.9.3;                                  ! Version Identifier

OS:SizingPeriod:DesignDay,
  {890536c1-a7ec-4b65-85a4-01b8031b0abf}, ! Handle
  GRAND_JUNCTION Ann Clg 2% Condns WB=>MDB, ! Name
  28.1,                                   ! Maximum Dry-Bulb Temperature {C}
  15.3,                                   ! Daily Dry-Bulb Temperature Range {deltaC}
  17.4,                                   ! Humidity Indicating Conditions at Maximum Dry-Bulb {BasedOnField A3}
  84816,                                  ! Barometric Pressure {Pa}
  4.6,                                    ! Wind Speed {m/s}
  270,                                    ! Wind Direction {deg}
  0,                                      ! Sky Clearness
  0,                                      ! Rain Indicator
  0,                                      ! Snow Indicator
  21,                                     ! Day of Month
  7,                                      ! Month
  SummerDesignDay,                        ! Day Type
  0,                                      ! Daylight Saving Time Indicator
  Wetbulb,                                ! Humidity Indicating Type
  ,                                       ! Humidity Indicating Day Schedule Name
  DefaultMultipliers,                     ! Dry-Bulb Temperature Range Modifier Type
  ,                                       ! Dry-Bulb Temperature Range Modifier Schedule Name
  ASHRAETau,                              ! Solar Model Indicator
  ,                                       ! Beam Solar Day Schedule Name
  ,                                       ! Diffuse Solar Day Schedule Name
  0.41,                                   ! ASHRAE Taub {dimensionless}
  2.106;                                  ! ASHRAE Taud {dimensionless}

OS:ComponentData,
  {3d89b237-ffb5-46fb-b623-dd277b42009b}, ! Handle
  Component Data 1,                       ! Name
  {70b3c700-2ca5-41bb-bc9a-5e1720956e33}, ! UUID
  {7bc375e7-eff7-480e-9f6f-d608b8bf423f}, ! Version UUID
  1366306703,                             ! Creation Timestamp
  1366306703,                             ! Version Timestamp
  {890536c1-a7ec-4b65-85a4-01b8031b0abf}; ! Name of Object 1

