
OS:Version,
  {3ef70d14-22db-4a13-8ac5-19c9bead7d24}, ! Handle
  0.9.3;                                  ! Version Identifier

OS:SizingPeriod:DesignDay,
  {83baa589-65e5-462d-9e92-dad944a53175}, ! Handle
  Bakersfield Meadows Field Ann Clg 2% Condns WB=>MDB, ! Name
  34.4,                                   ! Maximum Dry-Bulb Temperature {C}
  14.9,                                   ! Daily Dry-Bulb Temperature Range {deltaC}
  21.6,                                   ! Humidity Indicating Conditions at Maximum Dry-Bulb {BasedOnField A3}
  99548,                                  ! Barometric Pressure {Pa}
  5.3,                                    ! Wind Speed {m/s}
  300,                                    ! Wind Direction {deg}
  0,                                      ! Sky Clearness
  0,                                      ! Rain Indicator
  0,                                      ! Snow Indicator
  21,                                     ! Day of Month
  7,                                      ! Month
  SummerDesignDay,                        ! Day Type
  0,                                      ! Daylight Saving Time Indicator
  Wetbulb,                                ! Humidity Indicating Type
  ,                                       ! Humidity Indicating Day Schedule Name
  DefaultMultipliers,                     ! Dry-Bulb Temperature Range Modifier Type
  ,                                       ! Dry-Bulb Temperature Range Modifier Schedule Name
  ASHRAETau,                              ! Solar Model Indicator
  ,                                       ! Beam Solar Day Schedule Name
  ,                                       ! Diffuse Solar Day Schedule Name
  0.438,                                  ! ASHRAE Taub {dimensionless}
  2.106;                                  ! ASHRAE Taud {dimensionless}

OS:ComponentData,
  {712051a6-e00e-47ea-be2a-205d483b179e}, ! Handle
  Component Data 1,                       ! Name
  {65b1e17e-dfbd-43ba-aef3-2e278b5b62a2}, ! UUID
  {4d50bf40-3329-4f95-8f66-b5af074d9c8c}, ! Version UUID
  1366306365,                             ! Creation Timestamp
  1366306365,                             ! Version Timestamp
  {83baa589-65e5-462d-9e92-dad944a53175}; ! Name of Object 1

