
OS:Version,
  {72766468-1476-48e5-99c4-2b83cd60805d}, ! Handle
  0.9.3;                                  ! Version Identifier

OS:SizingPeriod:DesignDay,
  {f4e59d8e-04fc-465d-be64-acaa4ac86074}, ! Handle
  Greenwood Leflore Arpt Ann Clg 1% Condns WB=>MDB, ! Name
  32.1,                                   ! Maximum Dry-Bulb Temperature {C}
  10.5,                                   ! Daily Dry-Bulb Temperature Range {deltaC}
  26.6,                                   ! Humidity Indicating Conditions at Maximum Dry-Bulb {BasedOnField A3}
  100762,                                 ! Barometric Pressure {Pa}
  2.9,                                    ! Wind Speed {m/s}
  230,                                    ! Wind Direction {deg}
  0,                                      ! Sky Clearness
  0,                                      ! Rain Indicator
  0,                                      ! Snow Indicator
  21,                                     ! Day of Month
  7,                                      ! Month
  SummerDesignDay,                        ! Day Type
  0,                                      ! Daylight Saving Time Indicator
  Wetbulb,                                ! Humidity Indicating Type
  ,                                       ! Humidity Indicating Day Schedule Name
  DefaultMultipliers,                     ! Dry-Bulb Temperature Range Modifier Type
  ,                                       ! Dry-Bulb Temperature Range Modifier Schedule Name
  ASHRAETau,                              ! Solar Model Indicator
  ,                                       ! Beam Solar Day Schedule Name
  ,                                       ! Diffuse Solar Day Schedule Name
  0.551,                                  ! ASHRAE Taub {dimensionless}
  1.802;                                  ! ASHRAE Taud {dimensionless}

OS:ComponentData,
  {d5f4b6c6-8447-415c-93da-f23d892bb049}, ! Handle
  Component Data 1,                       ! Name
  {7aba90be-e56b-43e2-8422-02ec4769e78d}, ! UUID
  {fb31def1-63a4-4e6e-90c2-0a2a83f42953}, ! Version UUID
  1366308626,                             ! Creation Timestamp
  1366308626,                             ! Version Timestamp
  {f4e59d8e-04fc-465d-be64-acaa4ac86074}; ! Name of Object 1

