
OS:Version,
  {dcd46641-fc7f-4927-bf01-e85c5ee60e78}, ! Handle
  0.9.3;                                  ! Version Identifier

OS:SizingPeriod:DesignDay,
  {7bcc81a0-75ca-4ef0-baae-cc2266b3bd37}, ! Handle
  Cincinnati Northern Ky Ap Ann Htg 99% Condns DB, ! Name
  -12.1,                                  ! Maximum Dry-Bulb Temperature {C}
  0,                                      ! Daily Dry-Bulb Temperature Range {deltaC}
  -12.1,                                  ! Humidity Indicating Conditions at Maximum Dry-Bulb {BasedOnField A3}
  98182,                                  ! Barometric Pressure {Pa}
  3.8,                                    ! Wind Speed {m/s}
  280,                                    ! Wind Direction {deg}
  0,                                      ! Sky Clearness
  0,                                      ! Rain Indicator
  0,                                      ! Snow Indicator
  21,                                     ! Day of Month
  1,                                      ! Month
  WinterDesignDay,                        ! Day Type
  0,                                      ! Daylight Saving Time Indicator
  Wetbulb,                                ! Humidity Indicating Type
  ,                                       ! Humidity Indicating Day Schedule Name
  DefaultMultipliers,                     ! Dry-Bulb Temperature Range Modifier Type
  ,                                       ! Dry-Bulb Temperature Range Modifier Schedule Name
  ASHRAEClearSky;                         ! Solar Model Indicator

OS:ComponentData,
  {0635b9c7-1620-40a3-85c0-cfaea6a2a2f4}, ! Handle
  Component Data 1,                       ! Name
  {2895ca68-66b2-474f-80d0-61a36cc0e42c}, ! UUID
  {fd0ea315-6fee-4762-9699-9e43c0aa0c27}, ! Version UUID
  1366307620,                             ! Creation Timestamp
  1366307620,                             ! Version Timestamp
  {7bcc81a0-75ca-4ef0-baae-cc2266b3bd37}; ! Name of Object 1

