
OS:Version,
  {4f264f0d-311c-45e9-91b6-65e12ba6892a}, ! Handle
  0.9.3;                                  ! Version Identifier

OS:SizingPeriod:DesignDay,
  {4fe25c5f-dee7-42bc-9237-3f8a4c462dcf}, ! Handle
  Fort Riley Marshall Aaf Ann Clg 2% Condns DP=>MDB, ! Name
  28.4,                                   ! Maximum Dry-Bulb Temperature {C}
  12.6,                                   ! Daily Dry-Bulb Temperature Range {deltaC}
  22.2,                                   ! Humidity Indicating Conditions at Maximum Dry-Bulb {BasedOnField A3}
  97493,                                  ! Barometric Pressure {Pa}
  4.1,                                    ! Wind Speed {m/s}
  210,                                    ! Wind Direction {deg}
  0,                                      ! Sky Clearness
  0,                                      ! Rain Indicator
  0,                                      ! Snow Indicator
  21,                                     ! Day of Month
  7,                                      ! Month
  SummerDesignDay,                        ! Day Type
  0,                                      ! Daylight Saving Time Indicator
  Dewpoint,                               ! Humidity Indicating Type
  ,                                       ! Humidity Indicating Day Schedule Name
  DefaultMultipliers,                     ! Dry-Bulb Temperature Range Modifier Type
  ,                                       ! Dry-Bulb Temperature Range Modifier Schedule Name
  ASHRAETau,                              ! Solar Model Indicator
  ,                                       ! Beam Solar Day Schedule Name
  ,                                       ! Diffuse Solar Day Schedule Name
  0.424,                                  ! ASHRAE Taub {dimensionless}
  2.19;                                   ! ASHRAE Taud {dimensionless}

OS:ComponentData,
  {687dc74b-c442-450c-af44-4e008d3389ce}, ! Handle
  Component Data 1,                       ! Name
  {471554c6-9e6f-41a4-8dc7-7b788a2bd1e7}, ! UUID
  {4f855750-db41-4c16-b5af-e2df2e645898}, ! Version UUID
  1366307523,                             ! Creation Timestamp
  1366307523,                             ! Version Timestamp
  {4fe25c5f-dee7-42bc-9237-3f8a4c462dcf}; ! Name of Object 1

