
OS:Version,
  {bcac10db-e7dd-40d4-aacd-f55a2650c017}, ! Handle
  0.9.3;                                  ! Version Identifier

OS:SizingPeriod:DesignDay,
  {c577c9f4-afe6-4296-b5c7-9c2c1e1e8cbd}, ! Handle
  Colorado Springs Ann Clg 1% Condns DP=>MDB, ! Name
  18.6,                                   ! Maximum Dry-Bulb Temperature {C}
  14.5,                                   ! Daily Dry-Bulb Temperature Range {deltaC}
  14.4,                                   ! Humidity Indicating Conditions at Maximum Dry-Bulb {BasedOnField A3}
  80677,                                  ! Barometric Pressure {Pa}
  5.4,                                    ! Wind Speed {m/s}
  170,                                    ! Wind Direction {deg}
  0,                                      ! Sky Clearness
  0,                                      ! Rain Indicator
  0,                                      ! Snow Indicator
  21,                                     ! Day of Month
  7,                                      ! Month
  SummerDesignDay,                        ! Day Type
  0,                                      ! Daylight Saving Time Indicator
  Dewpoint,                               ! Humidity Indicating Type
  ,                                       ! Humidity Indicating Day Schedule Name
  DefaultMultipliers,                     ! Dry-Bulb Temperature Range Modifier Type
  ,                                       ! Dry-Bulb Temperature Range Modifier Schedule Name
  ASHRAETau,                              ! Solar Model Indicator
  ,                                       ! Beam Solar Day Schedule Name
  ,                                       ! Diffuse Solar Day Schedule Name
  0.408,                                  ! ASHRAE Taub {dimensionless}
  2.047;                                  ! ASHRAE Taud {dimensionless}

OS:ComponentData,
  {638140e1-caf4-45bf-bc09-ac6737a2ccd6}, ! Handle
  Component Data 1,                       ! Name
  {a263437c-51db-4787-953e-d71d8a293910}, ! UUID
  {2b265521-1c7f-4aad-a23b-02ebcaf7c2a8}, ! Version UUID
  1366306659,                             ! Creation Timestamp
  1366306659,                             ! Version Timestamp
  {c577c9f4-afe6-4296-b5c7-9c2c1e1e8cbd}; ! Name of Object 1

