
OS:Version,
  {6e9b173b-2c40-4ee0-9ab1-e003eb17ce0a}, ! Handle
  0.9.3;                                  ! Version Identifier

OS:SizingPeriod:DesignDay,
  {64ae060f-0136-4a2c-8131-e106cd3d3a21}, ! Handle
  Fergus Falls Awos Ann Clg 1% Condns DB=>MWB, ! Name
  30.1,                                   ! Maximum Dry-Bulb Temperature {C}
  11.6,                                   ! Daily Dry-Bulb Temperature Range {deltaC}
  21.6,                                   ! Humidity Indicating Conditions at Maximum Dry-Bulb {BasedOnField A3}
  97063,                                  ! Barometric Pressure {Pa}
  6.2,                                    ! Wind Speed {m/s}
  170,                                    ! Wind Direction {deg}
  0,                                      ! Sky Clearness
  0,                                      ! Rain Indicator
  0,                                      ! Snow Indicator
  21,                                     ! Day of Month
  7,                                      ! Month
  SummerDesignDay,                        ! Day Type
  0,                                      ! Daylight Saving Time Indicator
  Wetbulb,                                ! Humidity Indicating Type
  ,                                       ! Humidity Indicating Day Schedule Name
  DefaultMultipliers,                     ! Dry-Bulb Temperature Range Modifier Type
  ,                                       ! Dry-Bulb Temperature Range Modifier Schedule Name
  ASHRAETau,                              ! Solar Model Indicator
  ,                                       ! Beam Solar Day Schedule Name
  ,                                       ! Diffuse Solar Day Schedule Name
  0.393,                                  ! ASHRAE Taub {dimensionless}
  2.26;                                   ! ASHRAE Taud {dimensionless}

OS:ComponentData,
  {0bfd3b47-fc78-4808-9a90-0db504697e2f}, ! Handle
  Component Data 1,                       ! Name
  {ce791b83-a045-4460-804f-7c991308711d}, ! UUID
  {924e8ac1-0343-4c68-99a2-60cec20ac7ac}, ! Version UUID
  1366308233,                             ! Creation Timestamp
  1366308233,                             ! Version Timestamp
  {64ae060f-0136-4a2c-8131-e106cd3d3a21}; ! Name of Object 1

