
OS:Version,
  {31b07ba0-9f7e-45a4-8379-cfeb7dc2df38}, ! Handle
  0.9.3;                                  ! Version Identifier

OS:SizingPeriod:DesignDay,
  {0649f4a6-ceb7-4f86-acb1-f5aaa854dc39}, ! Handle
  Erie International Ap Ann Hum_n 99.6% Condns DP=>MCDB, ! Name
  -13.5,                                  ! Maximum Dry-Bulb Temperature {C}
  0,                                      ! Daily Dry-Bulb Temperature Range {deltaC}
  -19.1,                                  ! Humidity Indicating Conditions at Maximum Dry-Bulb {BasedOnField A3}
  98686,                                  ! Barometric Pressure {Pa}
  5,                                      ! Wind Speed {m/s}
  190,                                    ! Wind Direction {deg}
  0,                                      ! Sky Clearness
  0,                                      ! Rain Indicator
  0,                                      ! Snow Indicator
  21,                                     ! Day of Month
  1,                                      ! Month
  WinterDesignDay,                        ! Day Type
  0,                                      ! Daylight Saving Time Indicator
  Dewpoint,                               ! Humidity Indicating Type
  ,                                       ! Humidity Indicating Day Schedule Name
  DefaultMultipliers,                     ! Dry-Bulb Temperature Range Modifier Type
  ,                                       ! Dry-Bulb Temperature Range Modifier Schedule Name
  ASHRAEClearSky;                         ! Solar Model Indicator

OS:ComponentData,
  {b73994f9-2b44-4705-a174-457b84985794}, ! Handle
  Component Data 1,                       ! Name
  {acd55ebd-790d-44b2-83ca-cadf3167e10f}, ! UUID
  {f0404702-06f8-4ded-81a4-ea1a4a97be96}, ! Version UUID
  1366310173,                             ! Creation Timestamp
  1366310173,                             ! Version Timestamp
  {0649f4a6-ceb7-4f86-acb1-f5aaa854dc39}; ! Name of Object 1

