
OS:Version,
  {efc1a45b-a799-431d-b198-90f9a0f7f85d}, ! Handle
  0.9.3;                                  ! Version Identifier

OS:SizingPeriod:DesignDay,
  {cd2bf1f9-570b-44b3-aeef-e54610f12932}, ! Handle
  Aitkin Ndb Awos Ann Clg 2% Condns DP=>MDB, ! Name
  24.8,                                   ! Maximum Dry-Bulb Temperature {C}
  12.5,                                   ! Daily Dry-Bulb Temperature Range {deltaC}
  21.3,                                   ! Humidity Indicating Conditions at Maximum Dry-Bulb {BasedOnField A3}
  96993,                                  ! Barometric Pressure {Pa}
  4,                                      ! Wind Speed {m/s}
  160,                                    ! Wind Direction {deg}
  0,                                      ! Sky Clearness
  0,                                      ! Rain Indicator
  0,                                      ! Snow Indicator
  21,                                     ! Day of Month
  7,                                      ! Month
  SummerDesignDay,                        ! Day Type
  0,                                      ! Daylight Saving Time Indicator
  Dewpoint,                               ! Humidity Indicating Type
  ,                                       ! Humidity Indicating Day Schedule Name
  DefaultMultipliers,                     ! Dry-Bulb Temperature Range Modifier Type
  ,                                       ! Dry-Bulb Temperature Range Modifier Schedule Name
  ASHRAETau,                              ! Solar Model Indicator
  ,                                       ! Beam Solar Day Schedule Name
  ,                                       ! Diffuse Solar Day Schedule Name
  0.396,                                  ! ASHRAE Taub {dimensionless}
  2.234;                                  ! ASHRAE Taud {dimensionless}

OS:ComponentData,
  {62c065f9-421d-41f0-a455-2a7405f97998}, ! Handle
  Component Data 1,                       ! Name
  {628b42db-9f36-4cad-b6a0-77bb760923e4}, ! UUID
  {2e22d410-c6ca-4284-81b4-afcb613e0827}, ! Version UUID
  1366308136,                             ! Creation Timestamp
  1366308136,                             ! Version Timestamp
  {cd2bf1f9-570b-44b3-aeef-e54610f12932}; ! Name of Object 1

