
OS:Version,
  {047b28c5-69a7-4fac-badd-a0aca648cd3d}, ! Handle
  0.9.3;                                  ! Version Identifier

OS:SizingPeriod:DesignDay,
  {49b2438f-6a7c-4b8b-be8b-17e960aa208b}, ! Handle
  Danville Faa Ap Ann Clg 1% Condns DB=>MWB, ! Name
  32.8,                                   ! Maximum Dry-Bulb Temperature {C}
  10.5,                                   ! Daily Dry-Bulb Temperature Range {deltaC}
  23.5,                                   ! Humidity Indicating Conditions at Maximum Dry-Bulb {BasedOnField A3}
  99228,                                  ! Barometric Pressure {Pa}
  3.5,                                    ! Wind Speed {m/s}
  250,                                    ! Wind Direction {deg}
  0,                                      ! Sky Clearness
  0,                                      ! Rain Indicator
  0,                                      ! Snow Indicator
  21,                                     ! Day of Month
  7,                                      ! Month
  SummerDesignDay,                        ! Day Type
  0,                                      ! Daylight Saving Time Indicator
  Wetbulb,                                ! Humidity Indicating Type
  ,                                       ! Humidity Indicating Day Schedule Name
  DefaultMultipliers,                     ! Dry-Bulb Temperature Range Modifier Type
  ,                                       ! Dry-Bulb Temperature Range Modifier Schedule Name
  ASHRAETau,                              ! Solar Model Indicator
  ,                                       ! Beam Solar Day Schedule Name
  ,                                       ! Diffuse Solar Day Schedule Name
  0.559,                                  ! ASHRAE Taub {dimensionless}
  1.76;                                   ! ASHRAE Taud {dimensionless}

OS:ComponentData,
  {782da6a8-0bcd-4461-9e8c-01d8a64f14f1}, ! Handle
  Component Data 1,                       ! Name
  {0c096d3b-e9e2-4e77-b94b-98b9a259bda1}, ! UUID
  {37e40279-b746-45a5-9a0e-3f14e27cb88f}, ! Version UUID
  1366311029,                             ! Creation Timestamp
  1366311029,                             ! Version Timestamp
  {49b2438f-6a7c-4b8b-be8b-17e960aa208b}; ! Name of Object 1

