
OS:Version,
  {4025ec90-60be-4660-8caa-18de50894545}, ! Handle
  0.9.3;                                  ! Version Identifier

OS:SizingPeriod:DesignDay,
  {71e8e12e-e8bc-4804-925c-fbfed9c521b8}, ! Handle
  Kodiak/State USCG Base Ann Htg 99% Condns DB, ! Name
  -10.6,                                  ! Maximum Dry-Bulb Temperature {C}
  0,                                      ! Daily Dry-Bulb Temperature Range {deltaC}
  -10.6,                                  ! Humidity Indicating Conditions at Maximum Dry-Bulb {BasedOnField A3}
  100917,                                 ! Barometric Pressure {Pa}
  6,                                      ! Wind Speed {m/s}
  300,                                    ! Wind Direction {deg}
  0,                                      ! Sky Clearness
  0,                                      ! Rain Indicator
  0,                                      ! Snow Indicator
  21,                                     ! Day of Month
  1,                                      ! Month
  WinterDesignDay,                        ! Day Type
  0,                                      ! Daylight Saving Time Indicator
  Wetbulb,                                ! Humidity Indicating Type
  ,                                       ! Humidity Indicating Day Schedule Name
  DefaultMultipliers,                     ! Dry-Bulb Temperature Range Modifier Type
  ,                                       ! Dry-Bulb Temperature Range Modifier Schedule Name
  ASHRAEClearSky;                         ! Solar Model Indicator

OS:ComponentData,
  {fa99910a-13e7-4665-b249-d4211e821d27}, ! Handle
  Component Data 1,                       ! Name
  {80c3c99c-2d0f-44d8-a2da-c43feb493d33}, ! UUID
  {bbe64996-dc11-4163-99ff-ccd04b4eb8fd}, ! Version UUID
  1366305373,                             ! Creation Timestamp
  1366305373,                             ! Version Timestamp
  {71e8e12e-e8bc-4804-925c-fbfed9c521b8}; ! Name of Object 1

