
OS:Version,
  {5736cf1c-566f-4f52-ba8c-d5ca3c0e4716}, ! Handle
  0.9.3;                                  ! Version Identifier

OS:SizingPeriod:DesignDay,
  {7cc863b0-e631-4420-bce9-7502b1fd6d66}, ! Handle
  Cheyenne/Warren AFB Ann Clg 1% Condns DP=>MDB, ! Name
  18.5,                                   ! Maximum Dry-Bulb Temperature {C}
  14.6,                                   ! Daily Dry-Bulb Temperature Range {deltaC}
  14,                                     ! Humidity Indicating Conditions at Maximum Dry-Bulb {BasedOnField A3}
  80767,                                  ! Barometric Pressure {Pa}
  5.3,                                    ! Wind Speed {m/s}
  170,                                    ! Wind Direction {deg}
  0,                                      ! Sky Clearness
  0,                                      ! Rain Indicator
  0,                                      ! Snow Indicator
  21,                                     ! Day of Month
  7,                                      ! Month
  SummerDesignDay,                        ! Day Type
  0,                                      ! Daylight Saving Time Indicator
  Dewpoint,                               ! Humidity Indicating Type
  ,                                       ! Humidity Indicating Day Schedule Name
  DefaultMultipliers,                     ! Dry-Bulb Temperature Range Modifier Type
  ,                                       ! Dry-Bulb Temperature Range Modifier Schedule Name
  ASHRAETau,                              ! Solar Model Indicator
  ,                                       ! Beam Solar Day Schedule Name
  ,                                       ! Diffuse Solar Day Schedule Name
  0.404,                                  ! ASHRAE Taub {dimensionless}
  2.038;                                  ! ASHRAE Taud {dimensionless}

