
OS:Version,
  {b8fb0b94-1443-4fc7-b1f6-c6890197bc91}, ! Handle
  0.9.3;                                  ! Version Identifier

OS:SizingPeriod:DesignDay,
  {4f4480cb-19b0-420c-b8e6-929b6836d2b2}, ! Handle
  Franklin Ann Clg 2% Condns DP=>MDB,     ! Name
  24,                                     ! Maximum Dry-Bulb Temperature {C}
  10.1,                                   ! Daily Dry-Bulb Temperature Range {deltaC}
  20.1,                                   ! Humidity Indicating Conditions at Maximum Dry-Bulb {BasedOnField A3}
  95805,                                  ! Barometric Pressure {Pa}
  3.5,                                    ! Wind Speed {m/s}
  200,                                    ! Wind Direction {deg}
  0,                                      ! Sky Clearness
  0,                                      ! Rain Indicator
  0,                                      ! Snow Indicator
  21,                                     ! Day of Month
  7,                                      ! Month
  SummerDesignDay,                        ! Day Type
  0,                                      ! Daylight Saving Time Indicator
  Dewpoint,                               ! Humidity Indicating Type
  ,                                       ! Humidity Indicating Day Schedule Name
  DefaultMultipliers,                     ! Dry-Bulb Temperature Range Modifier Type
  ,                                       ! Dry-Bulb Temperature Range Modifier Schedule Name
  ASHRAETau,                              ! Solar Model Indicator
  ,                                       ! Beam Solar Day Schedule Name
  ,                                       ! Diffuse Solar Day Schedule Name
  0.434,                                  ! ASHRAE Taub {dimensionless}
  2.094;                                  ! ASHRAE Taud {dimensionless}

OS:ComponentData,
  {048534b6-eff0-40ec-b4af-efabbb3c933b}, ! Handle
  Component Data 1,                       ! Name
  {468db819-b50f-4ce8-9c46-4af53f2d760e}, ! UUID
  {7c46fa15-dee1-4dbd-b502-a0ca7f92c49a}, ! Version UUID
  1366310179,                             ! Creation Timestamp
  1366310179,                             ! Version Timestamp
  {4f4480cb-19b0-420c-b8e6-929b6836d2b2}; ! Name of Object 1

