
OS:Version,
  {cdcc7481-3127-4028-a4b8-2c82b755c33f}, ! Handle
  0.9.3;                                  ! Version Identifier

OS:SizingPeriod:DesignDay,
  {5b23c039-8de0-4845-9ea5-85a84771b472}, ! Handle
  Crescent City Faa Ai Ann Hum_n 99% Condns DP=>MCDB, ! Name
  6.2,                                    ! Maximum Dry-Bulb Temperature {C}
  0,                                      ! Daily Dry-Bulb Temperature Range {deltaC}
  -2.4,                                   ! Humidity Indicating Conditions at Maximum Dry-Bulb {BasedOnField A3}
  101121,                                 ! Barometric Pressure {Pa}
  2.2,                                    ! Wind Speed {m/s}
  90,                                     ! Wind Direction {deg}
  0,                                      ! Sky Clearness
  0,                                      ! Rain Indicator
  0,                                      ! Snow Indicator
  21,                                     ! Day of Month
  12,                                     ! Month
  WinterDesignDay,                        ! Day Type
  0,                                      ! Daylight Saving Time Indicator
  Dewpoint,                               ! Humidity Indicating Type
  ,                                       ! Humidity Indicating Day Schedule Name
  DefaultMultipliers,                     ! Dry-Bulb Temperature Range Modifier Type
  ,                                       ! Dry-Bulb Temperature Range Modifier Schedule Name
  ASHRAEClearSky;                         ! Solar Model Indicator

OS:ComponentData,
  {ce58d9b3-9750-474c-8268-de9b2b8d466f}, ! Handle
  Component Data 1,                       ! Name
  {0f7e2448-a2b0-4a4e-a52d-bf075e28de7e}, ! UUID
  {ac2c4d58-cbe5-4842-8dbc-8a8c1f8187f2}, ! Version UUID
  1366306418,                             ! Creation Timestamp
  1366306418,                             ! Version Timestamp
  {5b23c039-8de0-4845-9ea5-85a84771b472}; ! Name of Object 1

