
OS:Version,
  {4e9ec246-d323-4acf-b1f7-e5d23ec5d064}, ! Handle
  0.9.3;                                  ! Version Identifier

OS:SizingPeriod:DesignDay,
  {fe43e96f-147d-4817-b5f7-dde5bc9d11a5}, ! Handle
  Laramie General Brees Field Ann Clg 2% Condns DB=>MWB, ! Name
  26.4,                                   ! Maximum Dry-Bulb Temperature {C}
  16.6,                                   ! Daily Dry-Bulb Temperature Range {deltaC}
  12.1,                                   ! Humidity Indicating Conditions at Maximum Dry-Bulb {BasedOnField A3}
  77396,                                  ! Barometric Pressure {Pa}
  5.8,                                    ! Wind Speed {m/s}
  290,                                    ! Wind Direction {deg}
  0,                                      ! Sky Clearness
  0,                                      ! Rain Indicator
  0,                                      ! Snow Indicator
  21,                                     ! Day of Month
  7,                                      ! Month
  SummerDesignDay,                        ! Day Type
  0,                                      ! Daylight Saving Time Indicator
  Wetbulb,                                ! Humidity Indicating Type
  ,                                       ! Humidity Indicating Day Schedule Name
  DefaultMultipliers,                     ! Dry-Bulb Temperature Range Modifier Type
  ,                                       ! Dry-Bulb Temperature Range Modifier Schedule Name
  ASHRAETau,                              ! Solar Model Indicator
  ,                                       ! Beam Solar Day Schedule Name
  ,                                       ! Diffuse Solar Day Schedule Name
  0.389,                                  ! ASHRAE Taub {dimensionless}
  2.093;                                  ! ASHRAE Taud {dimensionless}

OS:ComponentData,
  {df3ddf05-fdc0-4426-9ba7-2557487eaf59}, ! Handle
  Component Data 1,                       ! Name
  {187a032f-137e-4c30-a80a-4d3072caf57e}, ! UUID
  {fe892692-6798-4da8-b921-3c47af762cc9}, ! Version UUID
  1366311760,                             ! Creation Timestamp
  1366311760,                             ! Version Timestamp
  {fe43e96f-147d-4817-b5f7-dde5bc9d11a5}; ! Name of Object 1

