
OS:Version,
  {f2251f30-8642-4888-a45f-e41bc0574a04}, ! Handle
  0.9.3;                                  ! Version Identifier

OS:SizingPeriod:DesignDay,
  {d9ebd598-c931-4f79-8901-390b2dd6cd86}, ! Handle
  COLORADO_SPRINGS Ann Clg 2% Condns DP=>MDB, ! Name
  18.5,                                   ! Maximum Dry-Bulb Temperature {C}
  14.5,                                   ! Daily Dry-Bulb Temperature Range {deltaC}
  13.6,                                   ! Humidity Indicating Conditions at Maximum Dry-Bulb {BasedOnField A3}
  80677,                                  ! Barometric Pressure {Pa}
  5.4,                                    ! Wind Speed {m/s}
  170,                                    ! Wind Direction {deg}
  0,                                      ! Sky Clearness
  0,                                      ! Rain Indicator
  0,                                      ! Snow Indicator
  21,                                     ! Day of Month
  7,                                      ! Month
  SummerDesignDay,                        ! Day Type
  0,                                      ! Daylight Saving Time Indicator
  Dewpoint,                               ! Humidity Indicating Type
  ,                                       ! Humidity Indicating Day Schedule Name
  DefaultMultipliers,                     ! Dry-Bulb Temperature Range Modifier Type
  ,                                       ! Dry-Bulb Temperature Range Modifier Schedule Name
  ASHRAETau,                              ! Solar Model Indicator
  ,                                       ! Beam Solar Day Schedule Name
  ,                                       ! Diffuse Solar Day Schedule Name
  0.408,                                  ! ASHRAE Taub {dimensionless}
  2.047;                                  ! ASHRAE Taud {dimensionless}

OS:ComponentData,
  {3d3847e1-8709-4529-85ac-6f62e830da4f}, ! Handle
  Component Data 1,                       ! Name
  {6252025d-155e-45aa-8b41-0f20bc06cbf3}, ! UUID
  {e2e23975-177e-43b8-b68d-8d990feb2ab8}, ! Version UUID
  1366306666,                             ! Creation Timestamp
  1366306666,                             ! Version Timestamp
  {d9ebd598-c931-4f79-8901-390b2dd6cd86}; ! Name of Object 1

