
OS:Version,
  {628e6c7a-0963-48a1-a205-29358ada23c1}, ! Handle
  0.9.3;                                  ! Version Identifier

OS:SizingPeriod:DesignDay,
  {3d98d832-bd3e-48bf-92b1-44af38200f98}, ! Handle
  Dothan Municipal Ap Ann Htg Wind 99% Condns WS=>MCDB, ! Name
  9.5,                                    ! Maximum Dry-Bulb Temperature {C}
  0,                                      ! Daily Dry-Bulb Temperature Range {deltaC}
  9.5,                                    ! Humidity Indicating Conditions at Maximum Dry-Bulb {BasedOnField A3}
  100153,                                 ! Barometric Pressure {Pa}
  9.2,                                    ! Wind Speed {m/s}
  320,                                    ! Wind Direction {deg}
  0,                                      ! Sky Clearness
  0,                                      ! Rain Indicator
  0,                                      ! Snow Indicator
  21,                                     ! Day of Month
  1,                                      ! Month
  WinterDesignDay,                        ! Day Type
  0,                                      ! Daylight Saving Time Indicator
  Wetbulb,                                ! Humidity Indicating Type
  ,                                       ! Humidity Indicating Day Schedule Name
  DefaultMultipliers,                     ! Dry-Bulb Temperature Range Modifier Type
  ,                                       ! Dry-Bulb Temperature Range Modifier Schedule Name
  ASHRAEClearSky;                         ! Solar Model Indicator

OS:ComponentData,
  {57e639d4-ee56-4436-978c-447debb82a87}, ! Handle
  Component Data 1,                       ! Name
  {f8cb071d-ee0e-43f5-a4dd-233e8f7cbb3c}, ! UUID
  {79ec8bdf-3c52-4305-aea1-dccd7710aaf6}, ! Version UUID
  1366305651,                             ! Creation Timestamp
  1366305651,                             ! Version Timestamp
  {3d98d832-bd3e-48bf-92b1-44af38200f98}; ! Name of Object 1

