
OS:Version,
  {96427b9f-3f50-4b63-804e-bbc6e9db197f}, ! Handle
  0.9.3;                                  ! Version Identifier

OS:SizingPeriod:DesignDay,
  {348e5ebc-4d36-4570-afc6-45710e560694}, ! Handle
  King Salmon Arpt Ann Clg 1% Condns Enth=>MDB, ! Name
  18.8,                                   ! Maximum Dry-Bulb Temperature {C}
  8.6,                                    ! Daily Dry-Bulb Temperature Range {deltaC}
  41100,                                  ! Humidity Indicating Conditions at Maximum Dry-Bulb {BasedOnField A3}
  101145,                                 ! Barometric Pressure {Pa}
  4.8,                                    ! Wind Speed {m/s}
  270,                                    ! Wind Direction {deg}
  0,                                      ! Sky Clearness
  0,                                      ! Rain Indicator
  0,                                      ! Snow Indicator
  21,                                     ! Day of Month
  7,                                      ! Month
  SummerDesignDay,                        ! Day Type
  0,                                      ! Daylight Saving Time Indicator
  Enthalpy,                               ! Humidity Indicating Type
  ,                                       ! Humidity Indicating Day Schedule Name
  DefaultMultipliers,                     ! Dry-Bulb Temperature Range Modifier Type
  ,                                       ! Dry-Bulb Temperature Range Modifier Schedule Name
  ASHRAETau,                              ! Solar Model Indicator
  ,                                       ! Beam Solar Day Schedule Name
  ,                                       ! Diffuse Solar Day Schedule Name
  0.384,                                  ! ASHRAE Taub {dimensionless}
  2.227;                                  ! ASHRAE Taud {dimensionless}

OS:ComponentData,
  {c1472584-9374-415c-b463-a772c59e386f}, ! Handle
  Component Data 1,                       ! Name
  {af82e26e-bbd9-460f-9e7f-7231cbd49225}, ! UUID
  {4f7abfb4-79f6-49ba-b1d3-c8c6b2cf2360}, ! Version UUID
  1366305368,                             ! Creation Timestamp
  1366305368,                             ! Version Timestamp
  {348e5ebc-4d36-4570-afc6-45710e560694}; ! Name of Object 1

