
OS:Version,
  {99f2aa24-95cd-417e-9cf2-8c417af5af5e}, ! Handle
  0.9.3;                                  ! Version Identifier

OS:SizingPeriod:DesignDay,
  {80e7d376-30be-4f12-8cd1-08cc8ef0649b}, ! Handle
  Knoxville Ann Clg 2% Condns DB=>MWB,    ! Name
  31.2,                                   ! Maximum Dry-Bulb Temperature {C}
  10.4,                                   ! Daily Dry-Bulb Temperature Range {deltaC}
  22.9,                                   ! Humidity Indicating Conditions at Maximum Dry-Bulb {BasedOnField A3}
  97784,                                  ! Barometric Pressure {Pa}
  3.2,                                    ! Wind Speed {m/s}
  250,                                    ! Wind Direction {deg}
  0,                                      ! Sky Clearness
  0,                                      ! Rain Indicator
  0,                                      ! Snow Indicator
  21,                                     ! Day of Month
  7,                                      ! Month
  SummerDesignDay,                        ! Day Type
  0,                                      ! Daylight Saving Time Indicator
  Wetbulb,                                ! Humidity Indicating Type
  ,                                       ! Humidity Indicating Day Schedule Name
  DefaultMultipliers,                     ! Dry-Bulb Temperature Range Modifier Type
  ,                                       ! Dry-Bulb Temperature Range Modifier Schedule Name
  ASHRAETau,                              ! Solar Model Indicator
  ,                                       ! Beam Solar Day Schedule Name
  ,                                       ! Diffuse Solar Day Schedule Name
  0.547,                                  ! ASHRAE Taub {dimensionless}
  1.786;                                  ! ASHRAE Taud {dimensionless}

OS:ComponentData,
  {a6e03690-6ab9-4005-a1a0-5c57923e3fab}, ! Handle
  Component Data 1,                       ! Name
  {48353a8c-f7df-41a7-81a4-797d6e9c3f59}, ! UUID
  {06c977c5-d33a-4c7c-8005-6c43c0c26a6e}, ! Version UUID
  1366310509,                             ! Creation Timestamp
  1366310509,                             ! Version Timestamp
  {80e7d376-30be-4f12-8cd1-08cc8ef0649b}; ! Name of Object 1

