
OS:Version,
  {97bed1f0-1c2d-45f6-bee2-acf5d9eae1cc}, ! Handle
  0.9.3;                                  ! Version Identifier

OS:SizingPeriod:DesignDay,
  {2aa0e237-324e-429d-8d88-731429dbee77}, ! Handle
  Eugene Mahlon Sweet Arpt  Uo Ann Htg 99% Condns DB, ! Name
  -3.2,                                   ! Maximum Dry-Bulb Temperature {C}
  0,                                      ! Daily Dry-Bulb Temperature Range {deltaC}
  -3.2,                                   ! Humidity Indicating Conditions at Maximum Dry-Bulb {BasedOnField A3}
  100022,                                 ! Barometric Pressure {Pa}
  3,                                      ! Wind Speed {m/s}
  0,                                      ! Wind Direction {deg}
  0,                                      ! Sky Clearness
  0,                                      ! Rain Indicator
  0,                                      ! Snow Indicator
  21,                                     ! Day of Month
  12,                                     ! Month
  WinterDesignDay,                        ! Day Type
  0,                                      ! Daylight Saving Time Indicator
  Wetbulb,                                ! Humidity Indicating Type
  ,                                       ! Humidity Indicating Day Schedule Name
  DefaultMultipliers,                     ! Dry-Bulb Temperature Range Modifier Type
  ,                                       ! Dry-Bulb Temperature Range Modifier Schedule Name
  ASHRAEClearSky;                         ! Solar Model Indicator

OS:ComponentData,
  {942bf095-be8a-4554-8d89-d215899d3c7c}, ! Handle
  Component Data 1,                       ! Name
  {c1da1ce6-ff14-439d-8727-8fd1cc0d7d89}, ! UUID
  {64d84623-1f90-459e-92db-59408ef14927}, ! Version UUID
  1366310006,                             ! Creation Timestamp
  1366310006,                             ! Version Timestamp
  {2aa0e237-324e-429d-8d88-731429dbee77}; ! Name of Object 1

