
OS:Version,
  {52eb06a9-b4d2-4a2a-8eda-f8ab2d043661}, ! Handle
  0.9.3;                                  ! Version Identifier

OS:SizingPeriod:DesignDay,
  {03ac56f5-56d4-434d-a105-95c1b18df822}, ! Handle
  Garden City Municipal Ap Ann Clg 2% Condns DP=>MDB, ! Name
  25.1,                                   ! Maximum Dry-Bulb Temperature {C}
  14.7,                                   ! Daily Dry-Bulb Temperature Range {deltaC}
  19.1,                                   ! Humidity Indicating Conditions at Maximum Dry-Bulb {BasedOnField A3}
  91212,                                  ! Barometric Pressure {Pa}
  7.3,                                    ! Wind Speed {m/s}
  180,                                    ! Wind Direction {deg}
  0,                                      ! Sky Clearness
  0,                                      ! Rain Indicator
  0,                                      ! Snow Indicator
  21,                                     ! Day of Month
  7,                                      ! Month
  SummerDesignDay,                        ! Day Type
  0,                                      ! Daylight Saving Time Indicator
  Dewpoint,                               ! Humidity Indicating Type
  ,                                       ! Humidity Indicating Day Schedule Name
  DefaultMultipliers,                     ! Dry-Bulb Temperature Range Modifier Type
  ,                                       ! Dry-Bulb Temperature Range Modifier Schedule Name
  ASHRAETau,                              ! Solar Model Indicator
  ,                                       ! Beam Solar Day Schedule Name
  ,                                       ! Diffuse Solar Day Schedule Name
  0.422,                                  ! ASHRAE Taub {dimensionless}
  2.104;                                  ! ASHRAE Taud {dimensionless}

OS:ComponentData,
  {c8caaf72-52f7-4e6e-8c27-979eeb39a5aa}, ! Handle
  Component Data 1,                       ! Name
  {75b6d558-3a2c-4c1f-943f-f87bd285e66d}, ! UUID
  {00fa198a-bb12-4295-8b9b-caf9031d33c2}, ! Version UUID
  1366307527,                             ! Creation Timestamp
  1366307527,                             ! Version Timestamp
  {03ac56f5-56d4-434d-a105-95c1b18df822}; ! Name of Object 1

