
OS:Version,
  {4c5f8703-b26f-4d40-b567-e3a1af15e580}, ! Handle
  0.9.3;                                  ! Version Identifier

OS:SizingPeriod:DesignDay,
  {fe9cc9c6-8391-4bd2-ada3-fda4132f069e}, ! Handle
  Elmira Corning Regional Ap Ann Hum_n 99% Condns DP=>MCDB, ! Name
  -14.7,                                  ! Maximum Dry-Bulb Temperature {C}
  0,                                      ! Daily Dry-Bulb Temperature Range {deltaC}
  -20.6,                                  ! Humidity Indicating Conditions at Maximum Dry-Bulb {BasedOnField A3}
  97878,                                  ! Barometric Pressure {Pa}
  2.2,                                    ! Wind Speed {m/s}
  240,                                    ! Wind Direction {deg}
  0,                                      ! Sky Clearness
  0,                                      ! Rain Indicator
  0,                                      ! Snow Indicator
  21,                                     ! Day of Month
  1,                                      ! Month
  WinterDesignDay,                        ! Day Type
  0,                                      ! Daylight Saving Time Indicator
  Dewpoint,                               ! Humidity Indicating Type
  ,                                       ! Humidity Indicating Day Schedule Name
  DefaultMultipliers,                     ! Dry-Bulb Temperature Range Modifier Type
  ,                                       ! Dry-Bulb Temperature Range Modifier Schedule Name
  ASHRAEClearSky;                         ! Solar Model Indicator

OS:ComponentData,
  {26185973-20dc-4266-8ec7-c4bed5125575}, ! Handle
  Component Data 1,                       ! Name
  {59dbb839-9cd2-4a58-b51f-15dec4c5f5d9}, ! UUID
  {b1b486e2-c86f-4439-b718-fc4f4203c01c}, ! Version UUID
  1366309616,                             ! Creation Timestamp
  1366309616,                             ! Version Timestamp
  {fe9cc9c6-8391-4bd2-ada3-fda4132f069e}; ! Name of Object 1

