
OS:Version,
  {81d3857f-bb33-43dc-91a8-3fc7fccbb21c}, ! Handle
  0.9.3;                                  ! Version Identifier

OS:SizingPeriod:DesignDay,
  {5b13d476-5734-45c0-8a5e-b78470f3aeaf}, ! Handle
  Iliamna Arpt Ann Htg Wind 99.6% Condns WS=>MCDB, ! Name
  -0.7,                                   ! Maximum Dry-Bulb Temperature {C}
  0,                                      ! Daily Dry-Bulb Temperature Range {deltaC}
  -0.7,                                   ! Humidity Indicating Conditions at Maximum Dry-Bulb {BasedOnField A3}
  100642,                                 ! Barometric Pressure {Pa}
  15.4,                                   ! Wind Speed {m/s}
  0,                                      ! Wind Direction {deg}
  0,                                      ! Sky Clearness
  0,                                      ! Rain Indicator
  0,                                      ! Snow Indicator
  21,                                     ! Day of Month
  1,                                      ! Month
  WinterDesignDay,                        ! Day Type
  0,                                      ! Daylight Saving Time Indicator
  Wetbulb,                                ! Humidity Indicating Type
  ,                                       ! Humidity Indicating Day Schedule Name
  DefaultMultipliers,                     ! Dry-Bulb Temperature Range Modifier Type
  ,                                       ! Dry-Bulb Temperature Range Modifier Schedule Name
  ASHRAEClearSky;                         ! Solar Model Indicator

OS:ComponentData,
  {6ac90424-f82f-4419-9f6c-467b1f2a175c}, ! Handle
  Component Data 1,                       ! Name
  {412df4a1-24e4-46f5-aaf4-7cff6864abbd}, ! UUID
  {315b9a38-51ff-4c8d-b3af-6a776cb6c04a}, ! Version UUID
  1366305325,                             ! Creation Timestamp
  1366305325,                             ! Version Timestamp
  {5b13d476-5734-45c0-8a5e-b78470f3aeaf}; ! Name of Object 1

