
OS:Version,
  {521ea4d4-1550-4959-9fef-ef07956b6041}, ! Handle
  0.9.3;                                  ! Version Identifier

OS:SizingPeriod:DesignDay,
  {555bea2a-f355-4739-87bf-1af04a18022c}, ! Handle
  Lewiston Nez Perce Cnty Ap Ann Hum_n 99% Condns DP=>MCDB, ! Name
  -6.7,                                   ! Maximum Dry-Bulb Temperature {C}
  0,                                      ! Daily Dry-Bulb Temperature Range {deltaC}
  -13,                                    ! Humidity Indicating Conditions at Maximum Dry-Bulb {BasedOnField A3}
  96173,                                  ! Barometric Pressure {Pa}
  2,                                      ! Wind Speed {m/s}
  270,                                    ! Wind Direction {deg}
  0,                                      ! Sky Clearness
  0,                                      ! Rain Indicator
  0,                                      ! Snow Indicator
  21,                                     ! Day of Month
  12,                                     ! Month
  WinterDesignDay,                        ! Day Type
  0,                                      ! Daylight Saving Time Indicator
  Dewpoint,                               ! Humidity Indicating Type
  ,                                       ! Humidity Indicating Day Schedule Name
  DefaultMultipliers,                     ! Dry-Bulb Temperature Range Modifier Type
  ,                                       ! Dry-Bulb Temperature Range Modifier Schedule Name
  ASHRAEClearSky;                         ! Solar Model Indicator

OS:ComponentData,
  {21d96bc7-0438-4d28-ac0b-c01a88ea3931}, ! Handle
  Component Data 1,                       ! Name
  {0b3a7484-11cc-4e25-8bd8-1680770ab10c}, ! UUID
  {5ae500e3-1aee-450f-805e-1c7a078f3e69}, ! Version UUID
  1366307291,                             ! Creation Timestamp
  1366307291,                             ! Version Timestamp
  {555bea2a-f355-4739-87bf-1af04a18022c}; ! Name of Object 1

