
OS:Version,
  {5bdceddd-03cc-48a2-b2a3-8c667fa65651}, ! Handle
  0.9.3;                                  ! Version Identifier

OS:SizingPeriod:DesignDay,
  {618af5b3-5ec7-4b8c-abec-b60add987f71}, ! Handle
  Chicago Ohare Intl Ap Ann Clg 1% Condns DP=>MDB, ! Name
  27.7,                                   ! Maximum Dry-Bulb Temperature {C}
  10.5,                                   ! Daily Dry-Bulb Temperature Range {deltaC}
  22.9,                                   ! Humidity Indicating Conditions at Maximum Dry-Bulb {BasedOnField A3}
  98934,                                  ! Barometric Pressure {Pa}
  5.2,                                    ! Wind Speed {m/s}
  230,                                    ! Wind Direction {deg}
  0,                                      ! Sky Clearness
  0,                                      ! Rain Indicator
  0,                                      ! Snow Indicator
  21,                                     ! Day of Month
  7,                                      ! Month
  SummerDesignDay,                        ! Day Type
  0,                                      ! Daylight Saving Time Indicator
  Dewpoint,                               ! Humidity Indicating Type
  ,                                       ! Humidity Indicating Day Schedule Name
  DefaultMultipliers,                     ! Dry-Bulb Temperature Range Modifier Type
  ,                                       ! Dry-Bulb Temperature Range Modifier Schedule Name
  ASHRAETau,                              ! Solar Model Indicator
  ,                                       ! Beam Solar Day Schedule Name
  ,                                       ! Diffuse Solar Day Schedule Name
  0.455,                                  ! ASHRAE Taub {dimensionless}
  2.05;                                   ! ASHRAE Taud {dimensionless}

OS:ComponentData,
  {99c1fe12-ef58-4f8c-b95a-7b6c490edbbc}, ! Handle
  Component Data 1,                       ! Name
  {8c988348-9a72-4726-bb80-0434c3009987}, ! UUID
  {c0412ba0-5a18-4eb1-ae24-dfca7fcde34d}, ! Version UUID
  1366307351,                             ! Creation Timestamp
  1366307351,                             ! Version Timestamp
  {618af5b3-5ec7-4b8c-abec-b60add987f71}; ! Name of Object 1

