
OS:Version,
  {8cbbde44-2ca2-4b3a-b12f-ae3a64dfa5cd}, ! Handle
  0.9.3;                                  ! Version Identifier

OS:SizingPeriod:DesignDay,
  {d29761a7-41b9-4d6a-9659-7b8eb9f13a68}, ! Handle
  LITTLE_ROCK Ann Hum_n 99% Condns DP=>MCDB, ! Name
  -3.8,                                   ! Maximum Dry-Bulb Temperature {C}
  0,                                      ! Daily Dry-Bulb Temperature Range {deltaC}
  -12.7,                                  ! Humidity Indicating Conditions at Maximum Dry-Bulb {BasedOnField A3}
  100356,                                 ! Barometric Pressure {Pa}
  2.3,                                    ! Wind Speed {m/s}
  350,                                    ! Wind Direction {deg}
  0,                                      ! Sky Clearness
  0,                                      ! Rain Indicator
  0,                                      ! Snow Indicator
  21,                                     ! Day of Month
  1,                                      ! Month
  WinterDesignDay,                        ! Day Type
  0,                                      ! Daylight Saving Time Indicator
  Dewpoint,                               ! Humidity Indicating Type
  ,                                       ! Humidity Indicating Day Schedule Name
  DefaultMultipliers,                     ! Dry-Bulb Temperature Range Modifier Type
  ,                                       ! Dry-Bulb Temperature Range Modifier Schedule Name
  ASHRAEClearSky;                         ! Solar Model Indicator

OS:ComponentData,
  {bbe146ee-7bae-41e0-80fc-02776b50ceba}, ! Handle
  Component Data 1,                       ! Name
  {2e24a2ba-b0df-4203-86bf-f7167753915e}, ! UUID
  {dbad8681-4d0b-4613-8983-d4c051a1ff7e}, ! Version UUID
  1366306231,                             ! Creation Timestamp
  1366306231,                             ! Version Timestamp
  {d29761a7-41b9-4d6a-9659-7b8eb9f13a68}; ! Name of Object 1

