
OS:Version,
  {d2bd6e76-bb8c-4cee-81d9-b2cd02f37ecb}, ! Handle
  0.9.3;                                  ! Version Identifier

OS:SizingPeriod:DesignDay,
  {93533d08-4674-4f40-86d1-7d5b029a48fb}, ! Handle
  Casper Ann Clg .4% Condns DP=>MDB,      ! Name
  19.2,                                   ! Maximum Dry-Bulb Temperature {C}
  18.1,                                   ! Daily Dry-Bulb Temperature Range {deltaC}
  14.4,                                   ! Humidity Indicating Conditions at Maximum Dry-Bulb {BasedOnField A3}
  83400,                                  ! Barometric Pressure {Pa}
  5.5,                                    ! Wind Speed {m/s}
  230,                                    ! Wind Direction {deg}
  0,                                      ! Sky Clearness
  0,                                      ! Rain Indicator
  0,                                      ! Snow Indicator
  21,                                     ! Day of Month
  7,                                      ! Month
  SummerDesignDay,                        ! Day Type
  0,                                      ! Daylight Saving Time Indicator
  Dewpoint,                               ! Humidity Indicating Type
  ,                                       ! Humidity Indicating Day Schedule Name
  DefaultMultipliers,                     ! Dry-Bulb Temperature Range Modifier Type
  ,                                       ! Dry-Bulb Temperature Range Modifier Schedule Name
  ASHRAETau,                              ! Solar Model Indicator
  ,                                       ! Beam Solar Day Schedule Name
  ,                                       ! Diffuse Solar Day Schedule Name
  0.411,                                  ! ASHRAE Taub {dimensionless}
  2.017;                                  ! ASHRAE Taud {dimensionless}

OS:ComponentData,
  {521ba8c4-631e-444a-8f3b-01ccdb085b62}, ! Handle
  Component Data 1,                       ! Name
  {932ff3ae-2fb1-4439-8456-2573a9b48f3e}, ! UUID
  {71261341-f3dd-401a-9233-2899ed377694}, ! Version UUID
  1366311684,                             ! Creation Timestamp
  1366311684,                             ! Version Timestamp
  {93533d08-4674-4f40-86d1-7d5b029a48fb}; ! Name of Object 1

