
OS:Version,
  {88fc9fb9-f7fe-4496-9951-ff0c3981cb42}, ! Handle
  0.9.3;                                  ! Version Identifier

OS:SizingPeriod:DesignDay,
  {a0e34e39-33c7-4661-a04f-d422cf7e5b58}, ! Handle
  Adak Nas Ann Clg 2% Condns DB=>MWB,     ! Name
  12.9,                                   ! Maximum Dry-Bulb Temperature {C}
  4.9,                                    ! Daily Dry-Bulb Temperature Range {deltaC}
  10.5,                                   ! Humidity Indicating Conditions at Maximum Dry-Bulb {BasedOnField A3}
  101265,                                 ! Barometric Pressure {Pa}
  4.9,                                    ! Wind Speed {m/s}
  180,                                    ! Wind Direction {deg}
  0,                                      ! Sky Clearness
  0,                                      ! Rain Indicator
  0,                                      ! Snow Indicator
  21,                                     ! Day of Month
  8,                                      ! Month
  SummerDesignDay,                        ! Day Type
  0,                                      ! Daylight Saving Time Indicator
  Wetbulb,                                ! Humidity Indicating Type
  ,                                       ! Humidity Indicating Day Schedule Name
  DefaultMultipliers,                     ! Dry-Bulb Temperature Range Modifier Type
  ,                                       ! Dry-Bulb Temperature Range Modifier Schedule Name
  ASHRAETau,                              ! Solar Model Indicator
  ,                                       ! Beam Solar Day Schedule Name
  ,                                       ! Diffuse Solar Day Schedule Name
  0.394,                                  ! ASHRAE Taub {dimensionless}
  2.21;                                   ! ASHRAE Taud {dimensionless}

OS:ComponentData,
  {ccf011f3-180c-471d-b85c-c8c1ed776ffe}, ! Handle
  Component Data 1,                       ! Name
  {d9687126-d617-4576-b530-78bb2b72cec1}, ! UUID
  {69cab347-8eac-4888-ade6-a9859236a237}, ! Version UUID
  1364004396,                             ! Creation Timestamp
  1364004396,                             ! Version Timestamp
  {a0e34e39-33c7-4661-a04f-d422cf7e5b58}; ! Name of Object 1

