
OS:Version,
  {27f39f97-586e-437e-9151-595af0f11fb6}, ! Handle
  0.9.3;                                  ! Version Identifier

OS:SizingPeriod:DesignDay,
  {f12d7611-7862-4cb1-9649-63120265ad3d}, ! Handle
  Craig Moffat Ann Clg 1% Condns DP=>MDB, ! Name
  18.4,                                   ! Maximum Dry-Bulb Temperature {C}
  20.7,                                   ! Daily Dry-Bulb Temperature Range {deltaC}
  12.2,                                   ! Humidity Indicating Conditions at Maximum Dry-Bulb {BasedOnField A3}
  80338,                                  ! Barometric Pressure {Pa}
  3.8,                                    ! Wind Speed {m/s}
  290,                                    ! Wind Direction {deg}
  0,                                      ! Sky Clearness
  0,                                      ! Rain Indicator
  0,                                      ! Snow Indicator
  21,                                     ! Day of Month
  7,                                      ! Month
  SummerDesignDay,                        ! Day Type
  0,                                      ! Daylight Saving Time Indicator
  Dewpoint,                               ! Humidity Indicating Type
  ,                                       ! Humidity Indicating Day Schedule Name
  DefaultMultipliers,                     ! Dry-Bulb Temperature Range Modifier Type
  ,                                       ! Dry-Bulb Temperature Range Modifier Schedule Name
  ASHRAETau,                              ! Solar Model Indicator
  ,                                       ! Beam Solar Day Schedule Name
  ,                                       ! Diffuse Solar Day Schedule Name
  0.372,                                  ! ASHRAE Taub {dimensionless}
  2.215;                                  ! ASHRAE Taud {dimensionless}

