
OS:Version,
  {92fe1a5c-6040-4a2b-9547-cfda34bd0b39}, ! Handle
  0.9.3;                                  ! Version Identifier

OS:SizingPeriod:DesignDay,
  {e88de30f-ecaf-463a-91c4-0dbea436e0ef}, ! Handle
  Annette Ann Clg .4% Condns DB=>MWB,     ! Name
  22.7,                                   ! Maximum Dry-Bulb Temperature {C}
  5.2,                                    ! Daily Dry-Bulb Temperature Range {deltaC}
  16,                                     ! Humidity Indicating Conditions at Maximum Dry-Bulb {BasedOnField A3}
  100917,                                 ! Barometric Pressure {Pa}
  3.4,                                    ! Wind Speed {m/s}
  300,                                    ! Wind Direction {deg}
  0,                                      ! Sky Clearness
  0,                                      ! Rain Indicator
  0,                                      ! Snow Indicator
  21,                                     ! Day of Month
  8,                                      ! Month
  SummerDesignDay,                        ! Day Type
  0,                                      ! Daylight Saving Time Indicator
  Wetbulb,                                ! Humidity Indicating Type
  ,                                       ! Humidity Indicating Day Schedule Name
  DefaultMultipliers,                     ! Dry-Bulb Temperature Range Modifier Type
  ,                                       ! Dry-Bulb Temperature Range Modifier Schedule Name
  ASHRAETau,                              ! Solar Model Indicator
  ,                                       ! Beam Solar Day Schedule Name
  ,                                       ! Diffuse Solar Day Schedule Name
  0.369,                                  ! ASHRAE Taub {dimensionless}
  2.372;                                  ! ASHRAE Taud {dimensionless}

OS:ComponentData,
  {b30688e6-a5de-4e2d-8e61-2f9115aae915}, ! Handle
  Component Data 1,                       ! Name
  {6d57a007-24b3-45f0-b8f3-d589e239390d}, ! UUID
  {52f413fa-1b60-4287-a48a-19723c8d577c}, ! Version UUID
  1366304722,                             ! Creation Timestamp
  1366304722,                             ! Version Timestamp
  {e88de30f-ecaf-463a-91c4-0dbea436e0ef}; ! Name of Object 1

