
OS:Version,
  {840d4a7e-a3be-42bd-9e80-54e21f54ce81}, ! Handle
  0.9.3;                                  ! Version Identifier

OS:SizingPeriod:DesignDay,
  {58ab509a-0785-402d-bc0d-cebe3d7f8696}, ! Handle
  Burlington International Ap Ann Clg .4% Condns DP=>MDB, ! Name
  25.9,                                   ! Maximum Dry-Bulb Temperature {C}
  10.7,                                   ! Daily Dry-Bulb Temperature Range {deltaC}
  21.7,                                   ! Humidity Indicating Conditions at Maximum Dry-Bulb {BasedOnField A3}
  100118,                                 ! Barometric Pressure {Pa}
  4.5,                                    ! Wind Speed {m/s}
  170,                                    ! Wind Direction {deg}
  0,                                      ! Sky Clearness
  0,                                      ! Rain Indicator
  0,                                      ! Snow Indicator
  21,                                     ! Day of Month
  7,                                      ! Month
  SummerDesignDay,                        ! Day Type
  0,                                      ! Daylight Saving Time Indicator
  Dewpoint,                               ! Humidity Indicating Type
  ,                                       ! Humidity Indicating Day Schedule Name
  DefaultMultipliers,                     ! Dry-Bulb Temperature Range Modifier Type
  ,                                       ! Dry-Bulb Temperature Range Modifier Schedule Name
  ASHRAETau,                              ! Solar Model Indicator
  ,                                       ! Beam Solar Day Schedule Name
  ,                                       ! Diffuse Solar Day Schedule Name
  0.459,                                  ! ASHRAE Taub {dimensionless}
  2.002;                                  ! ASHRAE Taud {dimensionless}

OS:ComponentData,
  {b8b5f8a7-88ff-456d-8e66-dcdd20c5abcc}, ! Handle
  Component Data 1,                       ! Name
  {2d0addf1-ef95-4f86-b522-ad64c4c1d6fe}, ! UUID
  {a6eccdcf-66a7-4116-a5c6-ebf8f8493102}, ! Version UUID
  1366311247,                             ! Creation Timestamp
  1366311247,                             ! Version Timestamp
  {58ab509a-0785-402d-bc0d-cebe3d7f8696}; ! Name of Object 1

