
OS:Version,
  {36be2f44-001d-4917-8296-51b481585184}, ! Handle
  0.9.3;                                  ! Version Identifier

OS:SizingPeriod:DesignDay,
  {ff646c0c-9c91-47bc-ad3f-666214cf9db9}, ! Handle
  Altus Afb Ann Htg Wind 99% Condns WS=>MCDB, ! Name
  4,                                      ! Maximum Dry-Bulb Temperature {C}
  0,                                      ! Daily Dry-Bulb Temperature Range {deltaC}
  4,                                      ! Humidity Indicating Conditions at Maximum Dry-Bulb {BasedOnField A3}
  96449,                                  ! Barometric Pressure {Pa}
  12,                                     ! Wind Speed {m/s}
  10,                                     ! Wind Direction {deg}
  0,                                      ! Sky Clearness
  0,                                      ! Rain Indicator
  0,                                      ! Snow Indicator
  21,                                     ! Day of Month
  1,                                      ! Month
  WinterDesignDay,                        ! Day Type
  0,                                      ! Daylight Saving Time Indicator
  Wetbulb,                                ! Humidity Indicating Type
  ,                                       ! Humidity Indicating Day Schedule Name
  DefaultMultipliers,                     ! Dry-Bulb Temperature Range Modifier Type
  ,                                       ! Dry-Bulb Temperature Range Modifier Schedule Name
  ASHRAEClearSky;                         ! Solar Model Indicator

OS:ComponentData,
  {df550f18-0245-4711-8406-5ba2b88d964e}, ! Handle
  Component Data 1,                       ! Name
  {2975aa19-a92d-4d12-bf99-ea5da977649b}, ! UUID
  {372e25e9-edc7-4549-b81e-052d71c9b1f0}, ! Version UUID
  1366309877,                             ! Creation Timestamp
  1366309877,                             ! Version Timestamp
  {ff646c0c-9c91-47bc-ad3f-666214cf9db9}; ! Name of Object 1

