
OS:Version,
  {844f9fdd-1e92-41e9-97f4-b29b66fb17e3}, ! Handle
  0.9.3;                                  ! Version Identifier

OS:SizingPeriod:DesignDay,
  {ea80f01a-232a-48d5-9a1c-0f216acdfcfc}, ! Handle
  Harrison Marion Rgn Ann Clg .4% Condns DB=>MWB, ! Name
  32.1,                                   ! Maximum Dry-Bulb Temperature {C}
  10.1,                                   ! Daily Dry-Bulb Temperature Range {deltaC}
  22.2,                                   ! Humidity Indicating Conditions at Maximum Dry-Bulb {BasedOnField A3}
  96842,                                  ! Barometric Pressure {Pa}
  3.3,                                    ! Wind Speed {m/s}
  220,                                    ! Wind Direction {deg}
  0,                                      ! Sky Clearness
  0,                                      ! Rain Indicator
  0,                                      ! Snow Indicator
  21,                                     ! Day of Month
  7,                                      ! Month
  SummerDesignDay,                        ! Day Type
  0,                                      ! Daylight Saving Time Indicator
  Wetbulb,                                ! Humidity Indicating Type
  ,                                       ! Humidity Indicating Day Schedule Name
  DefaultMultipliers,                     ! Dry-Bulb Temperature Range Modifier Type
  ,                                       ! Dry-Bulb Temperature Range Modifier Schedule Name
  ASHRAETau,                              ! Solar Model Indicator
  ,                                       ! Beam Solar Day Schedule Name
  ,                                       ! Diffuse Solar Day Schedule Name
  0.499,                                  ! ASHRAE Taub {dimensionless}
  1.888;                                  ! ASHRAE Taud {dimensionless}

OS:ComponentData,
  {ec3e3f64-8f1d-469e-a4b0-0e8492ef59c7}, ! Handle
  Component Data 1,                       ! Name
  {d6141fa6-41ef-4f44-9574-a882f6880bf4}, ! UUID
  {8a03bfe0-73a8-44d5-bc8e-d5da13a93f6b}, ! Version UUID
  1366311635,                             ! Creation Timestamp
  1366311635,                             ! Version Timestamp
  {ea80f01a-232a-48d5-9a1c-0f216acdfcfc}; ! Name of Object 1

