
OS:Version,
  {8d059abc-d526-4293-b114-1626ca5e2ff1}, ! Handle
  0.9.3;                                  ! Version Identifier

OS:SizingPeriod:DesignDay,
  {a840de57-f01a-4498-8112-00f54649a8f1}, ! Handle
  Cordova Ann Htg Wind 99% Condns WS=>MCDB, ! Name
  3.7,                                    ! Maximum Dry-Bulb Temperature {C}
  0,                                      ! Daily Dry-Bulb Temperature Range {deltaC}
  3.7,                                    ! Humidity Indicating Conditions at Maximum Dry-Bulb {BasedOnField A3}
  101181,                                 ! Barometric Pressure {Pa}
  10.9,                                   ! Wind Speed {m/s}
  10,                                     ! Wind Direction {deg}
  0,                                      ! Sky Clearness
  0,                                      ! Rain Indicator
  0,                                      ! Snow Indicator
  21,                                     ! Day of Month
  1,                                      ! Month
  WinterDesignDay,                        ! Day Type
  0,                                      ! Daylight Saving Time Indicator
  Wetbulb,                                ! Humidity Indicating Type
  ,                                       ! Humidity Indicating Day Schedule Name
  DefaultMultipliers,                     ! Dry-Bulb Temperature Range Modifier Type
  ,                                       ! Dry-Bulb Temperature Range Modifier Schedule Name
  ASHRAEClearSky;                         ! Solar Model Indicator

OS:ComponentData,
  {c32dbd3b-d3fc-4aa3-b4a6-84275418ef0b}, ! Handle
  Component Data 1,                       ! Name
  {af433878-73d4-416f-9862-a72e5552293a}, ! UUID
  {af0f28dd-4bbb-47d0-b084-8fa68d7b82d9}, ! Version UUID
  1366304814,                             ! Creation Timestamp
  1366304814,                             ! Version Timestamp
  {a840de57-f01a-4498-8112-00f54649a8f1}; ! Name of Object 1

