
OS:Version,
  {42aae2a4-8740-4746-ad73-15eb46e45aa1}, ! Handle
  0.9.3;                                  ! Version Identifier

OS:SizingPeriod:DesignDay,
  {87281d51-09a2-4818-a7d0-af7b18778bd9}, ! Handle
  Amarillo Ann Clg 1% Condns WB=>MDB,     ! Name
  29.6,                                   ! Maximum Dry-Bulb Temperature {C}
  13.8,                                   ! Daily Dry-Bulb Temperature Range {deltaC}
  21.1,                                   ! Humidity Indicating Conditions at Maximum Dry-Bulb {BasedOnField A3}
  88801,                                  ! Barometric Pressure {Pa}
  6.9,                                    ! Wind Speed {m/s}
  210,                                    ! Wind Direction {deg}
  0,                                      ! Sky Clearness
  0,                                      ! Rain Indicator
  0,                                      ! Snow Indicator
  21,                                     ! Day of Month
  7,                                      ! Month
  SummerDesignDay,                        ! Day Type
  0,                                      ! Daylight Saving Time Indicator
  Wetbulb,                                ! Humidity Indicating Type
  ,                                       ! Humidity Indicating Day Schedule Name
  DefaultMultipliers,                     ! Dry-Bulb Temperature Range Modifier Type
  ,                                       ! Dry-Bulb Temperature Range Modifier Schedule Name
  ASHRAETau,                              ! Solar Model Indicator
  ,                                       ! Beam Solar Day Schedule Name
  ,                                       ! Diffuse Solar Day Schedule Name
  0.414,                                  ! ASHRAE Taub {dimensionless}
  2.136;                                  ! ASHRAE Taud {dimensionless}

OS:ComponentData,
  {9b545b36-1bc2-4515-b225-eef58439106b}, ! Handle
  Component Data 1,                       ! Name
  {525d29a9-5ba6-4645-804c-e4c4fa3ee769}, ! UUID
  {4f0adbac-b7d9-429c-b990-e68595c3cb4f}, ! Version UUID
  1366310570,                             ! Creation Timestamp
  1366310570,                             ! Version Timestamp
  {87281d51-09a2-4818-a7d0-af7b18778bd9}; ! Name of Object 1

