
OS:Version,
  {7eb4ccb4-6da9-4c63-88a2-88f08bae2f30}, ! Handle
  0.9.3;                                  ! Version Identifier

OS:SizingPeriod:DesignDay,
  {8f3a5b17-34f4-4fb1-a5fa-0c6463874ed5}, ! Handle
  Juneau IntL Arpt Ann Clg .4% Condns Enth=>MDB, ! Name
  21.8,                                   ! Maximum Dry-Bulb Temperature {C}
  7.3,                                    ! Daily Dry-Bulb Temperature Range {deltaC}
  45000,                                  ! Humidity Indicating Conditions at Maximum Dry-Bulb {BasedOnField A3}
  101277,                                 ! Barometric Pressure {Pa}
  3.7,                                    ! Wind Speed {m/s}
  230,                                    ! Wind Direction {deg}
  0,                                      ! Sky Clearness
  0,                                      ! Rain Indicator
  0,                                      ! Snow Indicator
  21,                                     ! Day of Month
  7,                                      ! Month
  SummerDesignDay,                        ! Day Type
  0,                                      ! Daylight Saving Time Indicator
  Enthalpy,                               ! Humidity Indicating Type
  ,                                       ! Humidity Indicating Day Schedule Name
  DefaultMultipliers,                     ! Dry-Bulb Temperature Range Modifier Type
  ,                                       ! Dry-Bulb Temperature Range Modifier Schedule Name
  ASHRAETau,                              ! Solar Model Indicator
  ,                                       ! Beam Solar Day Schedule Name
  ,                                       ! Diffuse Solar Day Schedule Name
  0.43,                                   ! ASHRAE Taub {dimensionless}
  1.968;                                  ! ASHRAE Taud {dimensionless}

OS:ComponentData,
  {ba4fb659-1bd8-458e-a646-b3a28bc737b4}, ! Handle
  Component Data 1,                       ! Name
  {489231fd-3ff3-46c9-a79d-a133b3bd234b}, ! UUID
  {04674f38-34db-492c-bdbf-103ccfd4e31f}, ! Version UUID
  1366305339,                             ! Creation Timestamp
  1366305339,                             ! Version Timestamp
  {8f3a5b17-34f4-4fb1-a5fa-0c6463874ed5}; ! Name of Object 1

