
OS:Version,
  {da1d26f9-c6b5-4dab-bc7d-d310c868aca7}, ! Handle
  0.9.3;                                  ! Version Identifier

OS:SizingPeriod:DesignDay,
  {6dc2bfac-fe72-41c8-87d9-f68840805c4e}, ! Handle
  ALLENTOWN Ann Clg .4% Condns DB=>MWB,   ! Name
  32.8,                                   ! Maximum Dry-Bulb Temperature {C}
  10.7,                                   ! Daily Dry-Bulb Temperature Range {deltaC}
  23.2,                                   ! Humidity Indicating Conditions at Maximum Dry-Bulb {BasedOnField A3}
  99927,                                  ! Barometric Pressure {Pa}
  4.6,                                    ! Wind Speed {m/s}
  240,                                    ! Wind Direction {deg}
  0,                                      ! Sky Clearness
  0,                                      ! Rain Indicator
  0,                                      ! Snow Indicator
  21,                                     ! Day of Month
  7,                                      ! Month
  SummerDesignDay,                        ! Day Type
  0,                                      ! Daylight Saving Time Indicator
  Wetbulb,                                ! Humidity Indicating Type
  ,                                       ! Humidity Indicating Day Schedule Name
  DefaultMultipliers,                     ! Dry-Bulb Temperature Range Modifier Type
  ,                                       ! Dry-Bulb Temperature Range Modifier Schedule Name
  ASHRAETau,                              ! Solar Model Indicator
  ,                                       ! Beam Solar Day Schedule Name
  ,                                       ! Diffuse Solar Day Schedule Name
  0.504,                                  ! ASHRAE Taub {dimensionless}
  1.885;                                  ! ASHRAE Taud {dimensionless}

OS:ComponentData,
  {e7b66840-bae8-40ab-bea0-ad90c148a5fd}, ! Handle
  Component Data 1,                       ! Name
  {45229275-effd-46f8-b6f9-2f54be6ab595}, ! UUID
  {802dbf42-120b-4aa8-8dce-88865c805f51}, ! Version UUID
  1366310135,                             ! Creation Timestamp
  1366310135,                             ! Version Timestamp
  {6dc2bfac-fe72-41c8-87d9-f68840805c4e}; ! Name of Object 1

