
OS:Version,
  {a9fb8c3f-4255-44a3-8f44-7930a714ef61}, ! Handle
  0.9.3;                                  ! Version Identifier

OS:SizingPeriod:DesignDay,
  {d5e303b3-fca4-4460-8a35-6b638e27bb60}, ! Handle
  Great Falls Intl Arpt Ann Clg 1% Condns Enth=>MDB, ! Name
  27.7,                                   ! Maximum Dry-Bulb Temperature {C}
  16,                                     ! Daily Dry-Bulb Temperature Range {deltaC}
  51500,                                  ! Humidity Indicating Conditions at Maximum Dry-Bulb {BasedOnField A3}
  88606,                                  ! Barometric Pressure {Pa}
  4.9,                                    ! Wind Speed {m/s}
  240,                                    ! Wind Direction {deg}
  0,                                      ! Sky Clearness
  0,                                      ! Rain Indicator
  0,                                      ! Snow Indicator
  21,                                     ! Day of Month
  7,                                      ! Month
  SummerDesignDay,                        ! Day Type
  0,                                      ! Daylight Saving Time Indicator
  Enthalpy,                               ! Humidity Indicating Type
  ,                                       ! Humidity Indicating Day Schedule Name
  DefaultMultipliers,                     ! Dry-Bulb Temperature Range Modifier Type
  ,                                       ! Dry-Bulb Temperature Range Modifier Schedule Name
  ASHRAETau,                              ! Solar Model Indicator
  ,                                       ! Beam Solar Day Schedule Name
  ,                                       ! Diffuse Solar Day Schedule Name
  0.383,                                  ! ASHRAE Taub {dimensionless}
  2.176;                                  ! ASHRAE Taud {dimensionless}

