
OS:Version,
  {347b08ff-3b5e-4244-bbab-d5c84b714ab8}, ! Handle
  0.9.3;                                  ! Version Identifier

OS:SizingPeriod:DesignDay,
  {37e05b39-cdde-48ad-94d7-12cfe57286e3}, ! Handle
  Little Rock/AFB Ann Clg 2% Condns DB=>MWB, ! Name
  33.9,                                   ! Maximum Dry-Bulb Temperature {C}
  10.6,                                   ! Daily Dry-Bulb Temperature Range {deltaC}
  24.8,                                   ! Humidity Indicating Conditions at Maximum Dry-Bulb {BasedOnField A3}
  100189,                                 ! Barometric Pressure {Pa}
  3.9,                                    ! Wind Speed {m/s}
  200,                                    ! Wind Direction {deg}
  0,                                      ! Sky Clearness
  0,                                      ! Rain Indicator
  0,                                      ! Snow Indicator
  21,                                     ! Day of Month
  7,                                      ! Month
  SummerDesignDay,                        ! Day Type
  0,                                      ! Daylight Saving Time Indicator
  Wetbulb,                                ! Humidity Indicating Type
  ,                                       ! Humidity Indicating Day Schedule Name
  DefaultMultipliers,                     ! Dry-Bulb Temperature Range Modifier Type
  ,                                       ! Dry-Bulb Temperature Range Modifier Schedule Name
  ASHRAETau,                              ! Solar Model Indicator
  ,                                       ! Beam Solar Day Schedule Name
  ,                                       ! Diffuse Solar Day Schedule Name
  0.517,                                  ! ASHRAE Taub {dimensionless}
  1.901;                                  ! ASHRAE Taud {dimensionless}

OS:ComponentData,
  {98bb15c8-c8e3-493e-a660-a9426aec9664}, ! Handle
  Component Data 1,                       ! Name
  {036819cb-c87f-42be-9bd7-fe48b7de8aa8}, ! UUID
  {862baffa-29ce-4ba6-9521-73b3c16fb975}, ! Version UUID
  1366306224,                             ! Creation Timestamp
  1366306224,                             ! Version Timestamp
  {37e05b39-cdde-48ad-94d7-12cfe57286e3}; ! Name of Object 1

