
OS:Version,
  {7f654595-b06d-4e24-830f-348062e0ff32}, ! Handle
  0.9.3;                                  ! Version Identifier

OS:SizingPeriod:DesignDay,
  {2c32a5f5-4257-45be-bf11-d5501b2bc997}, ! Handle
  Batesville  Awos Ann Hum_n 99% Condns DP=>MCDB, ! Name
  -4.2,                                   ! Maximum Dry-Bulb Temperature {C}
  0,                                      ! Daily Dry-Bulb Temperature Range {deltaC}
  -14.3,                                  ! Humidity Indicating Conditions at Maximum Dry-Bulb {BasedOnField A3}
  99643,                                  ! Barometric Pressure {Pa}
  2.1,                                    ! Wind Speed {m/s}
  330,                                    ! Wind Direction {deg}
  0,                                      ! Sky Clearness
  0,                                      ! Rain Indicator
  0,                                      ! Snow Indicator
  21,                                     ! Day of Month
  1,                                      ! Month
  WinterDesignDay,                        ! Day Type
  0,                                      ! Daylight Saving Time Indicator
  Dewpoint,                               ! Humidity Indicating Type
  ,                                       ! Humidity Indicating Day Schedule Name
  DefaultMultipliers,                     ! Dry-Bulb Temperature Range Modifier Type
  ,                                       ! Dry-Bulb Temperature Range Modifier Schedule Name
  ASHRAEClearSky;                         ! Solar Model Indicator

OS:ComponentData,
  {fa3a6ae0-d30f-4b04-876f-a35182200f11}, ! Handle
  Component Data 1,                       ! Name
  {b687f067-9e9b-4b41-b1ba-af9defce2fdd}, ! UUID
  {9fcecb55-870f-496d-bbe2-f3690c6a024d}, ! Version UUID
  1366306057,                             ! Creation Timestamp
  1366306057,                             ! Version Timestamp
  {2c32a5f5-4257-45be-bf11-d5501b2bc997}; ! Name of Object 1

