
OS:Version,
  {e2e90807-754b-4834-869b-80748978e0ac}, ! Handle
  0.9.3;                                  ! Version Identifier

OS:SizingPeriod:DesignDay,
  {c9ff90a9-3c87-40d1-872c-047c1f81225a}, ! Handle
  Kake Seaplane Base Ann Hum_n 99% Condns DP=>MCDB, ! Name
  -6.8,                                   ! Maximum Dry-Bulb Temperature {C}
  0,                                      ! Daily Dry-Bulb Temperature Range {deltaC}
  -16.4,                                  ! Humidity Indicating Conditions at Maximum Dry-Bulb {BasedOnField A3}
  101325,                                 ! Barometric Pressure {Pa}
  2.4,                                    ! Wind Speed {m/s}
  70,                                     ! Wind Direction {deg}
  0,                                      ! Sky Clearness
  0,                                      ! Rain Indicator
  0,                                      ! Snow Indicator
  21,                                     ! Day of Month
  1,                                      ! Month
  WinterDesignDay,                        ! Day Type
  0,                                      ! Daylight Saving Time Indicator
  Dewpoint,                               ! Humidity Indicating Type
  ,                                       ! Humidity Indicating Day Schedule Name
  DefaultMultipliers,                     ! Dry-Bulb Temperature Range Modifier Type
  ,                                       ! Dry-Bulb Temperature Range Modifier Schedule Name
  ASHRAEClearSky;                         ! Solar Model Indicator

