
OS:Version,
  {2ea1e349-a497-46d4-becd-f448016e3e69}, ! Handle
  0.9.3;                                  ! Version Identifier

OS:SizingPeriod:DesignDay,
  {17068707-a9c8-4b6c-a25c-21d59625d144}, ! Handle
  Abilene Regional Ap  Ut Ann Hum_n 99% Condns DP=>MCDB, ! Name
  1.4,                                    ! Maximum Dry-Bulb Temperature {C}
  0,                                      ! Daily Dry-Bulb Temperature Range {deltaC}
  -13,                                    ! Humidity Indicating Conditions at Maximum Dry-Bulb {BasedOnField A3}
  95118,                                  ! Barometric Pressure {Pa}
  5.1,                                    ! Wind Speed {m/s}
  10,                                     ! Wind Direction {deg}
  0,                                      ! Sky Clearness
  0,                                      ! Rain Indicator
  0,                                      ! Snow Indicator
  21,                                     ! Day of Month
  1,                                      ! Month
  WinterDesignDay,                        ! Day Type
  0,                                      ! Daylight Saving Time Indicator
  Dewpoint,                               ! Humidity Indicating Type
  ,                                       ! Humidity Indicating Day Schedule Name
  DefaultMultipliers,                     ! Dry-Bulb Temperature Range Modifier Type
  ,                                       ! Dry-Bulb Temperature Range Modifier Schedule Name
  ASHRAEClearSky;                         ! Solar Model Indicator

OS:ComponentData,
  {b1a01fdc-57e7-4ce0-a520-b92b822adacd}, ! Handle
  Component Data 1,                       ! Name
  {e5f60927-2257-44f9-8ba9-97b960996bf8}, ! UUID
  {dfd65baf-2a1a-4c49-8bdb-273dd696db1b}, ! Version UUID
  1366310558,                             ! Creation Timestamp
  1366310558,                             ! Version Timestamp
  {17068707-a9c8-4b6c-a25c-21d59625d144}; ! Name of Object 1

