
OS:Version,
  {725e71c8-f841-4e1a-bc54-80a111deabd0}, ! Handle
  0.9.3;                                  ! Version Identifier

OS:SizingPeriod:DesignDay,
  {3e613dbe-8206-4a02-a017-62427e6918f3}, ! Handle
  Goodland Ann Clg 1% Condns Enth=>MDB,   ! Name
  29.8,                                   ! Maximum Dry-Bulb Temperature {C}
  15,                                     ! Daily Dry-Bulb Temperature Range {deltaC}
  66100,                                  ! Humidity Indicating Conditions at Maximum Dry-Bulb {BasedOnField A3}
  88531,                                  ! Barometric Pressure {Pa}
  6,                                      ! Wind Speed {m/s}
  160,                                    ! Wind Direction {deg}
  0,                                      ! Sky Clearness
  0,                                      ! Rain Indicator
  0,                                      ! Snow Indicator
  21,                                     ! Day of Month
  7,                                      ! Month
  SummerDesignDay,                        ! Day Type
  0,                                      ! Daylight Saving Time Indicator
  Enthalpy,                               ! Humidity Indicating Type
  ,                                       ! Humidity Indicating Day Schedule Name
  DefaultMultipliers,                     ! Dry-Bulb Temperature Range Modifier Type
  ,                                       ! Dry-Bulb Temperature Range Modifier Schedule Name
  ASHRAETau,                              ! Solar Model Indicator
  ,                                       ! Beam Solar Day Schedule Name
  ,                                       ! Diffuse Solar Day Schedule Name
  0.421,                                  ! ASHRAE Taub {dimensionless}
  2.065;                                  ! ASHRAE Taud {dimensionless}

OS:ComponentData,
  {bb8981fe-9a1d-4b7b-8d67-c16252a63073}, ! Handle
  Component Data 1,                       ! Name
  {293d73b7-1638-49cb-b159-3e878ffc7b6a}, ! UUID
  {46c05d2e-0ea2-4f81-99b8-cb73996c7718}, ! Version UUID
  1366307531,                             ! Creation Timestamp
  1366307531,                             ! Version Timestamp
  {3e613dbe-8206-4a02-a017-62427e6918f3}; ! Name of Object 1

