
OS:Version,
  {b9a1f4fb-e894-46bb-bd59-90c567a3db43}, ! Handle
  0.9.3;                                  ! Version Identifier

OS:SizingPeriod:DesignDay,
  {36a4dba1-5703-4a14-9b65-fb60c0e9ecb4}, ! Handle
  Augusta Ann Htg 99.6% Condns DB,        ! Name
  -5.4,                                   ! Maximum Dry-Bulb Temperature {C}
  0,                                      ! Daily Dry-Bulb Temperature Range {deltaC}
  -5.4,                                   ! Humidity Indicating Conditions at Maximum Dry-Bulb {BasedOnField A3}
  100786,                                 ! Barometric Pressure {Pa}
  1.5,                                    ! Wind Speed {m/s}
  300,                                    ! Wind Direction {deg}
  0,                                      ! Sky Clearness
  0,                                      ! Rain Indicator
  0,                                      ! Snow Indicator
  21,                                     ! Day of Month
  1,                                      ! Month
  WinterDesignDay,                        ! Day Type
  0,                                      ! Daylight Saving Time Indicator
  Wetbulb,                                ! Humidity Indicating Type
  ,                                       ! Humidity Indicating Day Schedule Name
  DefaultMultipliers,                     ! Dry-Bulb Temperature Range Modifier Type
  ,                                       ! Dry-Bulb Temperature Range Modifier Schedule Name
  ASHRAEClearSky;                         ! Solar Model Indicator

OS:ComponentData,
  {b345dd3e-2ef1-4e68-8da3-656c6e4ecdf5}, ! Handle
  Component Data 1,                       ! Name
  {166945b4-1f16-4d72-89f1-16d0942f49af}, ! UUID
  {20c0356e-9551-495e-afb7-33c1d4286b11}, ! Version UUID
  1366306984,                             ! Creation Timestamp
  1366306984,                             ! Version Timestamp
  {36a4dba1-5703-4a14-9b65-fb60c0e9ecb4}; ! Name of Object 1

