
OS:Version,
  {00fe7227-2e8c-4225-acf3-d9e8f62bc98a}, ! Handle
  0.9.3;                                  ! Version Identifier

OS:SizingPeriod:DesignDay,
  {e9e3f7a0-c1f3-4924-9e3e-236cb8f146b0}, ! Handle
  LANDER Ann Hum_n 99.6% Condns DP=>MCDB, ! Name
  -22.3,                                  ! Maximum Dry-Bulb Temperature {C}
  0,                                      ! Daily Dry-Bulb Temperature Range {deltaC}
  -26.6,                                  ! Humidity Indicating Conditions at Maximum Dry-Bulb {BasedOnField A3}
  82542,                                  ! Barometric Pressure {Pa}
  1.1,                                    ! Wind Speed {m/s}
  140,                                    ! Wind Direction {deg}
  0,                                      ! Sky Clearness
  0,                                      ! Rain Indicator
  0,                                      ! Snow Indicator
  21,                                     ! Day of Month
  12,                                     ! Month
  WinterDesignDay,                        ! Day Type
  0,                                      ! Daylight Saving Time Indicator
  Dewpoint,                               ! Humidity Indicating Type
  ,                                       ! Humidity Indicating Day Schedule Name
  DefaultMultipliers,                     ! Dry-Bulb Temperature Range Modifier Type
  ,                                       ! Dry-Bulb Temperature Range Modifier Schedule Name
  ASHRAEClearSky;                         ! Solar Model Indicator

OS:ComponentData,
  {1f66c512-2eba-475c-b0f3-54518948c76e}, ! Handle
  Component Data 1,                       ! Name
  {0b1c2804-509f-41d9-a089-c74238299ac6}, ! UUID
  {05da2ad5-6666-474f-bfcd-657d72ba782b}, ! Version UUID
  1366311754,                             ! Creation Timestamp
  1366311754,                             ! Version Timestamp
  {e9e3f7a0-c1f3-4924-9e3e-236cb8f146b0}; ! Name of Object 1

