
OS:Version,
  {8c56a579-e6cd-4986-8901-bcbc3af2476b}, ! Handle
  0.9.3;                                  ! Version Identifier

OS:SizingPeriod:DesignDay,
  {a6c886b8-96c9-4b06-8940-9e0e5441911d}, ! Handle
  KODIAK Ann Clg 1% Condns Enth=>MDB,     ! Name
  17.3,                                   ! Maximum Dry-Bulb Temperature {C}
  6.4,                                    ! Daily Dry-Bulb Temperature Range {deltaC}
  39700,                                  ! Humidity Indicating Conditions at Maximum Dry-Bulb {BasedOnField A3}
  100917,                                 ! Barometric Pressure {Pa}
  5.2,                                    ! Wind Speed {m/s}
  310,                                    ! Wind Direction {deg}
  0,                                      ! Sky Clearness
  0,                                      ! Rain Indicator
  0,                                      ! Snow Indicator
  21,                                     ! Day of Month
  8,                                      ! Month
  SummerDesignDay,                        ! Day Type
  0,                                      ! Daylight Saving Time Indicator
  Enthalpy,                               ! Humidity Indicating Type
  ,                                       ! Humidity Indicating Day Schedule Name
  DefaultMultipliers,                     ! Dry-Bulb Temperature Range Modifier Type
  ,                                       ! Dry-Bulb Temperature Range Modifier Schedule Name
  ASHRAETau,                              ! Solar Model Indicator
  ,                                       ! Beam Solar Day Schedule Name
  ,                                       ! Diffuse Solar Day Schedule Name
  0.36,                                   ! ASHRAE Taub {dimensionless}
  2.361;                                  ! ASHRAE Taud {dimensionless}

OS:ComponentData,
  {cfdf99fc-1e3a-42f8-9db9-ae604bf0ee3c}, ! Handle
  Component Data 1,                       ! Name
  {dbe0d369-b394-4c8a-9bc8-78d8c9b252a0}, ! UUID
  {37630bf5-3ec7-4650-9bc0-5ccda6ef3883}, ! Version UUID
  1366305371,                             ! Creation Timestamp
  1366305371,                             ! Version Timestamp
  {a6c886b8-96c9-4b06-8940-9e0e5441911d}; ! Name of Object 1

