
OS:Version,
  {a67172a8-0d0f-4b36-9cfd-ad1cce417ba3}, ! Handle
  0.9.3;                                  ! Version Identifier

OS:SizingPeriod:DesignDay,
  {4507ed84-e44c-44e3-86aa-94aaec504299}, ! Handle
  Jackson Julian Carroll Ap Ann Clg .4% Condns DB=>MWB, ! Name
  32,                                     ! Maximum Dry-Bulb Temperature {C}
  9.5,                                    ! Daily Dry-Bulb Temperature Range {deltaC}
  23.2,                                   ! Humidity Indicating Conditions at Maximum Dry-Bulb {BasedOnField A3}
  96426,                                  ! Barometric Pressure {Pa}
  2.2,                                    ! Wind Speed {m/s}
  230,                                    ! Wind Direction {deg}
  0,                                      ! Sky Clearness
  0,                                      ! Rain Indicator
  0,                                      ! Snow Indicator
  21,                                     ! Day of Month
  7,                                      ! Month
  SummerDesignDay,                        ! Day Type
  0,                                      ! Daylight Saving Time Indicator
  Wetbulb,                                ! Humidity Indicating Type
  ,                                       ! Humidity Indicating Day Schedule Name
  DefaultMultipliers,                     ! Dry-Bulb Temperature Range Modifier Type
  ,                                       ! Dry-Bulb Temperature Range Modifier Schedule Name
  ASHRAETau,                              ! Solar Model Indicator
  ,                                       ! Beam Solar Day Schedule Name
  ,                                       ! Diffuse Solar Day Schedule Name
  0.493,                                  ! ASHRAE Taub {dimensionless}
  1.907;                                  ! ASHRAE Taud {dimensionless}

OS:ComponentData,
  {da7c2ed2-5d53-4ce4-9fa7-e7004893dd31}, ! Handle
  Component Data 1,                       ! Name
  {5d330dd4-9822-4871-8e3f-af078820ffc2}, ! UUID
  {37a6b7d9-8e8b-42c4-9dd3-ebccb80d7f61}, ! Version UUID
  1366307643,                             ! Creation Timestamp
  1366307643,                             ! Version Timestamp
  {4507ed84-e44c-44e3-86aa-94aaec504299}; ! Name of Object 1

