
OS:Version,
  {f6c30145-ea24-480f-bf4a-668339e71e84}, ! Handle
  0.9.3;                                  ! Version Identifier

OS:SizingPeriod:DesignDay,
  {e0ba1904-0749-4fe0-84ff-c70f91cd271a}, ! Handle
  Georgetown  Awos Ann Clg .4% Condns Enth=>MDB, ! Name
  30.9,                                   ! Maximum Dry-Bulb Temperature {C}
  12.2,                                   ! Daily Dry-Bulb Temperature Range {deltaC}
  76700,                                  ! Humidity Indicating Conditions at Maximum Dry-Bulb {BasedOnField A3}
  98475,                                  ! Barometric Pressure {Pa}
  3.9,                                    ! Wind Speed {m/s}
  170,                                    ! Wind Direction {deg}
  0,                                      ! Sky Clearness
  0,                                      ! Rain Indicator
  0,                                      ! Snow Indicator
  21,                                     ! Day of Month
  8,                                      ! Month
  SummerDesignDay,                        ! Day Type
  0,                                      ! Daylight Saving Time Indicator
  Enthalpy,                               ! Humidity Indicating Type
  ,                                       ! Humidity Indicating Day Schedule Name
  DefaultMultipliers,                     ! Dry-Bulb Temperature Range Modifier Type
  ,                                       ! Dry-Bulb Temperature Range Modifier Schedule Name
  ASHRAETau,                              ! Solar Model Indicator
  ,                                       ! Beam Solar Day Schedule Name
  ,                                       ! Diffuse Solar Day Schedule Name
  0.451,                                  ! ASHRAE Taub {dimensionless}
  2.127;                                  ! ASHRAE Taud {dimensionless}

OS:ComponentData,
  {200b5ec9-4201-4dbe-9ff8-9eaf648df9a5}, ! Handle
  Component Data 1,                       ! Name
  {8a8ac7fc-a1b1-4dae-ba26-019c59b79787}, ! UUID
  {44acba5f-eb03-438f-b5de-6ea9667996ab}, ! Version UUID
  1366310723,                             ! Creation Timestamp
  1366310723,                             ! Version Timestamp
  {e0ba1904-0749-4fe0-84ff-c70f91cd271a}; ! Name of Object 1

