
OS:Version,
  {bc4045ed-ea9d-4ff7-b473-4775cf3e7b1c}, ! Handle
  0.9.3;                                  ! Version Identifier

OS:SizingPeriod:DesignDay,
  {d4eca7d9-3bae-4ad9-8fb0-1e5bfed6a770}, ! Handle
  Alexandria Municipal Ap Ann Hum_n 99.6% Condns DP=>MCDB, ! Name
  -28.3,                                  ! Maximum Dry-Bulb Temperature {C}
  0,                                      ! Daily Dry-Bulb Temperature Range {deltaC}
  -32.6,                                  ! Humidity Indicating Conditions at Maximum Dry-Bulb {BasedOnField A3}
  96230,                                  ! Barometric Pressure {Pa}
  4.1,                                    ! Wind Speed {m/s}
  300,                                    ! Wind Direction {deg}
  0,                                      ! Sky Clearness
  0,                                      ! Rain Indicator
  0,                                      ! Snow Indicator
  21,                                     ! Day of Month
  1,                                      ! Month
  WinterDesignDay,                        ! Day Type
  0,                                      ! Daylight Saving Time Indicator
  Dewpoint,                               ! Humidity Indicating Type
  ,                                       ! Humidity Indicating Day Schedule Name
  DefaultMultipliers,                     ! Dry-Bulb Temperature Range Modifier Type
  ,                                       ! Dry-Bulb Temperature Range Modifier Schedule Name
  ASHRAEClearSky;                         ! Solar Model Indicator

OS:ComponentData,
  {8063543a-9725-436a-9dd5-dfef43791ea3}, ! Handle
  Component Data 1,                       ! Name
  {1d172c12-a8bb-4b5d-a154-f3a0e687e730}, ! UUID
  {430b4c0c-7521-4180-b5ec-fb0cddc296e2}, ! Version UUID
  1366308144,                             ! Creation Timestamp
  1366308144,                             ! Version Timestamp
  {d4eca7d9-3bae-4ad9-8fb0-1e5bfed6a770}; ! Name of Object 1

