
OS:Version,
  {c5642de6-7761-4093-b97b-fe260974318e}, ! Handle
  0.9.3;                                  ! Version Identifier

OS:SizingPeriod:DesignDay,
  {32a206ea-6200-4ec0-989d-bdcce6f10ddc}, ! Handle
  BURLINGTON Ann Clg 2% Condns DP=>MDB,   ! Name
  24.2,                                   ! Maximum Dry-Bulb Temperature {C}
  10.7,                                   ! Daily Dry-Bulb Temperature Range {deltaC}
  19.8,                                   ! Humidity Indicating Conditions at Maximum Dry-Bulb {BasedOnField A3}
  100082,                                 ! Barometric Pressure {Pa}
  4.5,                                    ! Wind Speed {m/s}
  170,                                    ! Wind Direction {deg}
  0,                                      ! Sky Clearness
  0,                                      ! Rain Indicator
  0,                                      ! Snow Indicator
  21,                                     ! Day of Month
  7,                                      ! Month
  SummerDesignDay,                        ! Day Type
  0,                                      ! Daylight Saving Time Indicator
  Dewpoint,                               ! Humidity Indicating Type
  ,                                       ! Humidity Indicating Day Schedule Name
  DefaultMultipliers,                     ! Dry-Bulb Temperature Range Modifier Type
  ,                                       ! Dry-Bulb Temperature Range Modifier Schedule Name
  ASHRAETau,                              ! Solar Model Indicator
  ,                                       ! Beam Solar Day Schedule Name
  ,                                       ! Diffuse Solar Day Schedule Name
  0.459,                                  ! ASHRAE Taub {dimensionless}
  2.002;                                  ! ASHRAE Taud {dimensionless}

OS:ComponentData,
  {d420a38b-329f-472b-a87c-67d93f9bce6c}, ! Handle
  Component Data 1,                       ! Name
  {3aa11e25-2ba7-4960-a29a-ecc00eb4cb95}, ! UUID
  {41b78504-c646-44f6-82b3-2e1980130f51}, ! Version UUID
  1366311236,                             ! Creation Timestamp
  1366311236,                             ! Version Timestamp
  {32a206ea-6200-4ec0-989d-bdcce6f10ddc}; ! Name of Object 1

