
OS:Version,
  {e6ccce2c-f401-476e-959f-5c87540bc671}, ! Handle
  0.9.3;                                  ! Version Identifier

OS:SizingPeriod:DesignDay,
  {30e56837-29ba-4975-ad93-169ad4c2e2cf}, ! Handle
  Bemidji Municipal Ann Clg 1% Condns WB=>MDB, ! Name
  27.2,                                   ! Maximum Dry-Bulb Temperature {C}
  10.7,                                   ! Daily Dry-Bulb Temperature Range {deltaC}
  21.4,                                   ! Humidity Indicating Conditions at Maximum Dry-Bulb {BasedOnField A3}
  96380,                                  ! Barometric Pressure {Pa}
  5.3,                                    ! Wind Speed {m/s}
  180,                                    ! Wind Direction {deg}
  0,                                      ! Sky Clearness
  0,                                      ! Rain Indicator
  0,                                      ! Snow Indicator
  21,                                     ! Day of Month
  7,                                      ! Month
  SummerDesignDay,                        ! Day Type
  0,                                      ! Daylight Saving Time Indicator
  Wetbulb,                                ! Humidity Indicating Type
  ,                                       ! Humidity Indicating Day Schedule Name
  DefaultMultipliers,                     ! Dry-Bulb Temperature Range Modifier Type
  ,                                       ! Dry-Bulb Temperature Range Modifier Schedule Name
  ASHRAETau,                              ! Solar Model Indicator
  ,                                       ! Beam Solar Day Schedule Name
  ,                                       ! Diffuse Solar Day Schedule Name
  0.389,                                  ! ASHRAE Taub {dimensionless}
  2.27;                                   ! ASHRAE Taud {dimensionless}

OS:ComponentData,
  {fec04cfb-7fa1-43cd-8944-d405f3fcb1f0}, ! Handle
  Component Data 1,                       ! Name
  {a3e3701f-c871-4bf7-8bfd-2486671a861b}, ! UUID
  {dd724b7e-9f21-47a2-95a2-c1c83cf9c273}, ! Version UUID
  1366308159,                             ! Creation Timestamp
  1366308159,                             ! Version Timestamp
  {30e56837-29ba-4975-ad93-169ad4c2e2cf}; ! Name of Object 1

