
OS:Version,
  {e6dccaf2-fc5b-4cc0-80dc-1655e2df6f2e}, ! Handle
  0.9.3;                                  ! Version Identifier

OS:SizingPeriod:DesignDay,
  {673397cd-e853-4d49-890b-cf6edc9e2721}, ! Handle
  Adak NAS Ann Clg .4% Condns WB=>MDB,    ! Name
  15,                                     ! Maximum Dry-Bulb Temperature {C}
  4.9,                                    ! Daily Dry-Bulb Temperature Range {deltaC}
  13.2,                                   ! Humidity Indicating Conditions at Maximum Dry-Bulb {BasedOnField A3}
  101265,                                 ! Barometric Pressure {Pa}
  4.9,                                    ! Wind Speed {m/s}
  180,                                    ! Wind Direction {deg}
  0,                                      ! Sky Clearness
  0,                                      ! Rain Indicator
  0,                                      ! Snow Indicator
  21,                                     ! Day of Month
  8,                                      ! Month
  SummerDesignDay,                        ! Day Type
  0,                                      ! Daylight Saving Time Indicator
  Wetbulb,                                ! Humidity Indicating Type
  ,                                       ! Humidity Indicating Day Schedule Name
  DefaultMultipliers,                     ! Dry-Bulb Temperature Range Modifier Type
  ,                                       ! Dry-Bulb Temperature Range Modifier Schedule Name
  ASHRAETau,                              ! Solar Model Indicator
  ,                                       ! Beam Solar Day Schedule Name
  ,                                       ! Diffuse Solar Day Schedule Name
  0.394,                                  ! ASHRAE Taub {dimensionless}
  2.21;                                   ! ASHRAE Taud {dimensionless}

OS:ComponentData,
  {73919e3b-61cf-4370-823e-d7babcfedadb}, ! Handle
  Component Data 1,                       ! Name
  {d5ea561f-c9c7-4c0f-be0e-4a23761b5fce}, ! UUID
  {ba4d93b0-d2ac-48d5-ad02-e91dce6b2ade}, ! Version UUID
  1364004394,                             ! Creation Timestamp
  1364004394,                             ! Version Timestamp
  {673397cd-e853-4d49-890b-cf6edc9e2721}; ! Name of Object 1

