
OS:Version,
  {c331e848-f6f1-4e30-9d90-35bf0180e86c}, ! Handle
  0.9.3;                                  ! Version Identifier

OS:SizingPeriod:DesignDay,
  {7c3a3968-c869-4053-bdf9-eeb590ef9144}, ! Handle
  EUGENE Ann Clg 1% Condns WB=>MDB,       ! Name
  29.2,                                   ! Maximum Dry-Bulb Temperature {C}
  15.8,                                   ! Daily Dry-Bulb Temperature Range {deltaC}
  19.5,                                   ! Humidity Indicating Conditions at Maximum Dry-Bulb {BasedOnField A3}
  100022,                                 ! Barometric Pressure {Pa}
  5.1,                                    ! Wind Speed {m/s}
  0,                                      ! Wind Direction {deg}
  0,                                      ! Sky Clearness
  0,                                      ! Rain Indicator
  0,                                      ! Snow Indicator
  21,                                     ! Day of Month
  7,                                      ! Month
  SummerDesignDay,                        ! Day Type
  0,                                      ! Daylight Saving Time Indicator
  Wetbulb,                                ! Humidity Indicating Type
  ,                                       ! Humidity Indicating Day Schedule Name
  DefaultMultipliers,                     ! Dry-Bulb Temperature Range Modifier Type
  ,                                       ! Dry-Bulb Temperature Range Modifier Schedule Name
  ASHRAETau,                              ! Solar Model Indicator
  ,                                       ! Beam Solar Day Schedule Name
  ,                                       ! Diffuse Solar Day Schedule Name
  0.357,                                  ! ASHRAE Taub {dimensionless}
  2.559;                                  ! ASHRAE Taud {dimensionless}

OS:ComponentData,
  {bc29bc46-cf49-4c05-b9b5-c4fb32c2812f}, ! Handle
  Component Data 1,                       ! Name
  {bb5735f1-bdbe-46ba-9ab0-b2c72dc3b7bc}, ! UUID
  {a1d29ed7-dfee-40de-88fc-c1eff4ae8ffd}, ! Version UUID
  1366310012,                             ! Creation Timestamp
  1366310012,                             ! Version Timestamp
  {7c3a3968-c869-4053-bdf9-eeb590ef9144}; ! Name of Object 1

