
OS:Version,
  {3b33872b-3292-4331-accf-915c0c54bcd2}, ! Handle
  0.9.3;                                  ! Version Identifier

OS:SizingPeriod:DesignDay,
  {61a9c626-b688-4638-b62b-cf3278113cd4}, ! Handle
  Bangor/Dow AFB Ann Hum_n 99% Condns DP=>MCDB, ! Name
  -17.7,                                  ! Maximum Dry-Bulb Temperature {C}
  0,                                      ! Daily Dry-Bulb Temperature Range {deltaC}
  -25.2,                                  ! Humidity Indicating Conditions at Maximum Dry-Bulb {BasedOnField A3}
  100654,                                 ! Barometric Pressure {Pa}
  2.4,                                    ! Wind Speed {m/s}
  310,                                    ! Wind Direction {deg}
  0,                                      ! Sky Clearness
  0,                                      ! Rain Indicator
  0,                                      ! Snow Indicator
  21,                                     ! Day of Month
  1,                                      ! Month
  WinterDesignDay,                        ! Day Type
  0,                                      ! Daylight Saving Time Indicator
  Dewpoint,                               ! Humidity Indicating Type
  ,                                       ! Humidity Indicating Day Schedule Name
  DefaultMultipliers,                     ! Dry-Bulb Temperature Range Modifier Type
  ,                                       ! Dry-Bulb Temperature Range Modifier Schedule Name
  ASHRAEClearSky;                         ! Solar Model Indicator

OS:ComponentData,
  {ef136bad-e9b0-4c5e-970f-ade91a7f4ff6}, ! Handle
  Component Data 1,                       ! Name
  {a5fd33e9-b975-4e37-a899-195d279a1cb0}, ! UUID
  {c3b6adc1-2217-46cb-b816-47e3776e27c5}, ! Version UUID
  1366307871,                             ! Creation Timestamp
  1366307871,                             ! Version Timestamp
  {61a9c626-b688-4638-b62b-cf3278113cd4}; ! Name of Object 1

