
OS:Version,
  {8f83c7e6-9fe9-4df8-a8e2-99c6e70e8831}, ! Handle
  0.9.3;                                  ! Version Identifier

OS:SizingPeriod:DesignDay,
  {26259eed-3b49-493e-ba21-826ccb4aecec}, ! Handle
  Fort Smith Ann Clg 2% Condns WB=>MDB,   ! Name
  32,                                     ! Maximum Dry-Bulb Temperature {C}
  11.5,                                   ! Daily Dry-Bulb Temperature Range {deltaC}
  25.4,                                   ! Humidity Indicating Conditions at Maximum Dry-Bulb {BasedOnField A3}
  99643,                                  ! Barometric Pressure {Pa}
  3.7,                                    ! Wind Speed {m/s}
  230,                                    ! Wind Direction {deg}
  0,                                      ! Sky Clearness
  0,                                      ! Rain Indicator
  0,                                      ! Snow Indicator
  21,                                     ! Day of Month
  7,                                      ! Month
  SummerDesignDay,                        ! Day Type
  0,                                      ! Daylight Saving Time Indicator
  Wetbulb,                                ! Humidity Indicating Type
  ,                                       ! Humidity Indicating Day Schedule Name
  DefaultMultipliers,                     ! Dry-Bulb Temperature Range Modifier Type
  ,                                       ! Dry-Bulb Temperature Range Modifier Schedule Name
  ASHRAETau,                              ! Solar Model Indicator
  ,                                       ! Beam Solar Day Schedule Name
  ,                                       ! Diffuse Solar Day Schedule Name
  0.49,                                   ! ASHRAE Taub {dimensionless}
  1.983;                                  ! ASHRAE Taud {dimensionless}

OS:ComponentData,
  {afdd903c-c6dc-4327-8bb9-8bd50f8e5371}, ! Handle
  Component Data 1,                       ! Name
  {2151dd6b-3b85-4276-82ed-2972fbeb4cf5}, ! UUID
  {f4292f5f-59c1-4ab8-a55c-737e15e07aff}, ! Version UUID
  1366306210,                             ! Creation Timestamp
  1366306210,                             ! Version Timestamp
  {26259eed-3b49-493e-ba21-826ccb4aecec}; ! Name of Object 1

