
OS:Version,
  {de38940a-f2c8-454f-8e5f-3231446935f2}, ! Handle
  0.9.3;                                  ! Version Identifier

OS:SizingPeriod:DesignDay,
  {323e9211-380b-4707-a12b-598b03c703c4}, ! Handle
  Hancock Houghton Co Ap Ann Clg .4% Condns DP=>MDB, ! Name
  25.9,                                   ! Maximum Dry-Bulb Temperature {C}
  10.5,                                   ! Daily Dry-Bulb Temperature Range {deltaC}
  20.9,                                   ! Humidity Indicating Conditions at Maximum Dry-Bulb {BasedOnField A3}
  97458,                                  ! Barometric Pressure {Pa}
  4.7,                                    ! Wind Speed {m/s}
  270,                                    ! Wind Direction {deg}
  0,                                      ! Sky Clearness
  0,                                      ! Rain Indicator
  0,                                      ! Snow Indicator
  21,                                     ! Day of Month
  7,                                      ! Month
  SummerDesignDay,                        ! Day Type
  0,                                      ! Daylight Saving Time Indicator
  Dewpoint,                               ! Humidity Indicating Type
  ,                                       ! Humidity Indicating Day Schedule Name
  DefaultMultipliers,                     ! Dry-Bulb Temperature Range Modifier Type
  ,                                       ! Dry-Bulb Temperature Range Modifier Schedule Name
  ASHRAETau,                              ! Solar Model Indicator
  ,                                       ! Beam Solar Day Schedule Name
  ,                                       ! Diffuse Solar Day Schedule Name
  0.413,                                  ! ASHRAE Taub {dimensionless}
  2.179;                                  ! ASHRAE Taud {dimensionless}

OS:ComponentData,
  {16be8c2b-5c61-4b0b-a465-dfdb0221a3c7}, ! Handle
  Component Data 1,                       ! Name
  {0aac4926-87a9-4915-a7e7-6e3f34ee6f8c}, ! UUID
  {c0189111-a407-4336-a8b0-ec37a5554924}, ! Version UUID
  1366308022,                             ! Creation Timestamp
  1366308022,                             ! Version Timestamp
  {323e9211-380b-4707-a12b-598b03c703c4}; ! Name of Object 1

