
OS:Version,
  {9038df88-66fe-44e8-bd9b-353b2987dd94}, ! Handle
  0.9.3;                                  ! Version Identifier

OS:SizingPeriod:DesignDay,
  {3b8d978e-b50a-4a82-bedf-725c411cc85e}, ! Handle
  Fort Wayne Ann Htg Wind 99.6% Condns WS=>MCDB, ! Name
  -4.7,                                   ! Maximum Dry-Bulb Temperature {C}
  0,                                      ! Daily Dry-Bulb Temperature Range {deltaC}
  -4.7,                                   ! Humidity Indicating Conditions at Maximum Dry-Bulb {BasedOnField A3}
  98334,                                  ! Barometric Pressure {Pa}
  13.3,                                   ! Wind Speed {m/s}
  260,                                    ! Wind Direction {deg}
  0,                                      ! Sky Clearness
  0,                                      ! Rain Indicator
  0,                                      ! Snow Indicator
  21,                                     ! Day of Month
  1,                                      ! Month
  WinterDesignDay,                        ! Day Type
  0,                                      ! Daylight Saving Time Indicator
  Wetbulb,                                ! Humidity Indicating Type
  ,                                       ! Humidity Indicating Day Schedule Name
  DefaultMultipliers,                     ! Dry-Bulb Temperature Range Modifier Type
  ,                                       ! Dry-Bulb Temperature Range Modifier Schedule Name
  ASHRAEClearSky;                         ! Solar Model Indicator

OS:ComponentData,
  {c6630968-d5c4-4bdc-9a66-71e908699ea8}, ! Handle
  Component Data 1,                       ! Name
  {69122e75-82f4-4191-8cb3-a94cbd105c98}, ! UUID
  {1caf10d2-6ace-4d51-ac6b-fae275417fcc}, ! Version UUID
  1366307440,                             ! Creation Timestamp
  1366307440,                             ! Version Timestamp
  {3b8d978e-b50a-4a82-bedf-725c411cc85e}; ! Name of Object 1

