
OS:Version,
  {fc949eda-2518-4603-a7d0-e70942a35313}, ! Handle
  0.9.3;                                  ! Version Identifier

OS:SizingPeriod:DesignDay,
  {dfb58a2e-f569-4999-bbbf-52bb792f409f}, ! Handle
  Austin Mueller Municipal Ap Ann Clg .4% Condns DP=>MDB, ! Name
  27.6,                                   ! Maximum Dry-Bulb Temperature {C}
  12.5,                                   ! Daily Dry-Bulb Temperature Range {deltaC}
  24.9,                                   ! Humidity Indicating Conditions at Maximum Dry-Bulb {BasedOnField A3}
  98792,                                  ! Barometric Pressure {Pa}
  3.7,                                    ! Wind Speed {m/s}
  190,                                    ! Wind Direction {deg}
  0,                                      ! Sky Clearness
  0,                                      ! Rain Indicator
  0,                                      ! Snow Indicator
  21,                                     ! Day of Month
  8,                                      ! Month
  SummerDesignDay,                        ! Day Type
  0,                                      ! Daylight Saving Time Indicator
  Dewpoint,                               ! Humidity Indicating Type
  ,                                       ! Humidity Indicating Day Schedule Name
  DefaultMultipliers,                     ! Dry-Bulb Temperature Range Modifier Type
  ,                                       ! Dry-Bulb Temperature Range Modifier Schedule Name
  ASHRAETau,                              ! Solar Model Indicator
  ,                                       ! Beam Solar Day Schedule Name
  ,                                       ! Diffuse Solar Day Schedule Name
  0.457,                                  ! ASHRAE Taub {dimensionless}
  2.114;                                  ! ASHRAE Taud {dimensionless}

OS:ComponentData,
  {1eb501d4-5182-4cf6-b90f-1685dd8efc97}, ! Handle
  Component Data 1,                       ! Name
  {50db7f7d-2f6d-415f-a1bf-77475451353b}, ! UUID
  {f7b2589b-d8f1-457d-beba-04329b8fd732}, ! Version UUID
  1366310587,                             ! Creation Timestamp
  1366310587,                             ! Version Timestamp
  {dfb58a2e-f569-4999-bbbf-52bb792f409f}; ! Name of Object 1

