
OS:Version,
  {e3e7ff61-ccdf-4cb2-90ed-b3c7b0356d23}, ! Handle
  0.9.3;                                  ! Version Identifier

OS:SizingPeriod:DesignDay,
  {f1f3d8de-3269-4e1b-9ab0-967db86a633b}, ! Handle
  BETTLES Ann Hum_n 99% Condns DP=>MCDB,  ! Name
  -37.3,                                  ! Maximum Dry-Bulb Temperature {C}
  0,                                      ! Daily Dry-Bulb Temperature Range {deltaC}
  -41.8,                                  ! Humidity Indicating Conditions at Maximum Dry-Bulb {BasedOnField A3}
  98886,                                  ! Barometric Pressure {Pa}
  0.6,                                    ! Wind Speed {m/s}
  340,                                    ! Wind Direction {deg}
  0,                                      ! Sky Clearness
  0,                                      ! Rain Indicator
  0,                                      ! Snow Indicator
  21,                                     ! Day of Month
  1,                                      ! Month
  WinterDesignDay,                        ! Day Type
  0,                                      ! Daylight Saving Time Indicator
  Dewpoint,                               ! Humidity Indicating Type
  ,                                       ! Humidity Indicating Day Schedule Name
  DefaultMultipliers,                     ! Dry-Bulb Temperature Range Modifier Type
  ,                                       ! Dry-Bulb Temperature Range Modifier Schedule Name
  ASHRAEClearSky;                         ! Solar Model Indicator

OS:ComponentData,
  {c87d058b-48ff-464b-9ffc-b1c841b572fe}, ! Handle
  Component Data 1,                       ! Name
  {4bc804b2-8660-4f6b-87d7-8a86c94b8a8f}, ! UUID
  {294e9850-edaa-41cf-bf2b-d193aa2b8967}, ! Version UUID
  1366304762,                             ! Creation Timestamp
  1366304762,                             ! Version Timestamp
  {f1f3d8de-3269-4e1b-9ab0-967db86a633b}; ! Name of Object 1

