
OS:Version,
  {40e6aa6c-7fe3-4bf4-971c-e80695068c9c}, ! Handle
  0.9.3;                                  ! Version Identifier

OS:SizingPeriod:DesignDay,
  {3cb75eeb-2136-4903-a66b-18ad1386a7ce}, ! Handle
  ANCHORAGE Ann Clg 2% Condns DB=>MWB,    ! Name
  18.9,                                   ! Maximum Dry-Bulb Temperature {C}
  6.6,                                    ! Daily Dry-Bulb Temperature Range {deltaC}
  13.4,                                   ! Humidity Indicating Conditions at Maximum Dry-Bulb {BasedOnField A3}
  100905,                                 ! Barometric Pressure {Pa}
  3.6,                                    ! Wind Speed {m/s}
  300,                                    ! Wind Direction {deg}
  0,                                      ! Sky Clearness
  0,                                      ! Rain Indicator
  0,                                      ! Snow Indicator
  21,                                     ! Day of Month
  7,                                      ! Month
  SummerDesignDay,                        ! Day Type
  0,                                      ! Daylight Saving Time Indicator
  Wetbulb,                                ! Humidity Indicating Type
  ,                                       ! Humidity Indicating Day Schedule Name
  DefaultMultipliers,                     ! Dry-Bulb Temperature Range Modifier Type
  ,                                       ! Dry-Bulb Temperature Range Modifier Schedule Name
  ASHRAETau,                              ! Solar Model Indicator
  ,                                       ! Beam Solar Day Schedule Name
  ,                                       ! Diffuse Solar Day Schedule Name
  0.387,                                  ! ASHRAE Taub {dimensionless}
  2.172;                                  ! ASHRAE Taud {dimensionless}

OS:ComponentData,
  {fe9a79aa-d1fd-4930-a250-bbe9488fdb95}, ! Handle
  Component Data 1,                       ! Name
  {dc682039-662e-445c-995c-cafbd48792b7}, ! UUID
  {7a4387e8-bbf2-45c0-b0b1-080993fbd666}, ! Version UUID
  1366304703,                             ! Creation Timestamp
  1366304703,                             ! Version Timestamp
  {3cb75eeb-2136-4903-a66b-18ad1386a7ce}; ! Name of Object 1

