
OS:Version,
  {95bbbd56-3703-4f32-9627-85ac1145807f}, ! Handle
  0.9.3;                                  ! Version Identifier

OS:SizingPeriod:DesignDay,
  {38750a28-496d-4e89-a6e8-dd8fb34ea87e}, ! Handle
  Juneau Ann Hum_n 99.6% Condns DP=>MCDB, ! Name
  -12.4,                                  ! Maximum Dry-Bulb Temperature {C}
  0,                                      ! Daily Dry-Bulb Temperature Range {deltaC}
  -24.4,                                  ! Humidity Indicating Conditions at Maximum Dry-Bulb {BasedOnField A3}
  101289,                                 ! Barometric Pressure {Pa}
  2,                                      ! Wind Speed {m/s}
  0,                                      ! Wind Direction {deg}
  0,                                      ! Sky Clearness
  0,                                      ! Rain Indicator
  0,                                      ! Snow Indicator
  21,                                     ! Day of Month
  1,                                      ! Month
  WinterDesignDay,                        ! Day Type
  0,                                      ! Daylight Saving Time Indicator
  Dewpoint,                               ! Humidity Indicating Type
  ,                                       ! Humidity Indicating Day Schedule Name
  DefaultMultipliers,                     ! Dry-Bulb Temperature Range Modifier Type
  ,                                       ! Dry-Bulb Temperature Range Modifier Schedule Name
  ASHRAEClearSky;                         ! Solar Model Indicator

OS:ComponentData,
  {e0fd70a2-b2c7-4391-a5e5-1c76a2f13b37}, ! Handle
  Component Data 1,                       ! Name
  {45218a15-bab5-45f2-8326-380d61bcaeef}, ! UUID
  {e0d75596-834e-446e-b139-de851ce483dd}, ! Version UUID
  1366305332,                             ! Creation Timestamp
  1366305332,                             ! Version Timestamp
  {38750a28-496d-4e89-a6e8-dd8fb34ea87e}; ! Name of Object 1

