
OS:Version,
  {189a7e46-9fa9-4e59-b13c-5ec4f521e5ab}, ! Handle
  0.9.3;                                  ! Version Identifier

OS:SizingPeriod:DesignDay,
  {5de6ec8c-ef43-475b-ba76-2696f92b1207}, ! Handle
  Alamosa San Luis Valley Rgnl Ann Htg Wind 99.6% Condns WS=>MCDB, ! Name
  2.7,                                    ! Maximum Dry-Bulb Temperature {C}
  0,                                      ! Daily Dry-Bulb Temperature Range {deltaC}
  2.7,                                    ! Humidity Indicating Conditions at Maximum Dry-Bulb {BasedOnField A3}
  76617,                                  ! Barometric Pressure {Pa}
  12.6,                                   ! Wind Speed {m/s}
  270,                                    ! Wind Direction {deg}
  0,                                      ! Sky Clearness
  0,                                      ! Rain Indicator
  0,                                      ! Snow Indicator
  21,                                     ! Day of Month
  1,                                      ! Month
  WinterDesignDay,                        ! Day Type
  0,                                      ! Daylight Saving Time Indicator
  Wetbulb,                                ! Humidity Indicating Type
  ,                                       ! Humidity Indicating Day Schedule Name
  DefaultMultipliers,                     ! Dry-Bulb Temperature Range Modifier Type
  ,                                       ! Dry-Bulb Temperature Range Modifier Schedule Name
  ASHRAEClearSky;                         ! Solar Model Indicator

OS:ComponentData,
  {cd4d27f5-64e8-49cc-b0b6-b9ca23a0dcc1}, ! Handle
  Component Data 1,                       ! Name
  {87594401-6abb-463f-b8cf-f6905f3c3cf3}, ! UUID
  {dfd66c72-40a2-4b30-9599-4a7d14b7c159}, ! Version UUID
  1366306646,                             ! Creation Timestamp
  1366306646,                             ! Version Timestamp
  {5de6ec8c-ef43-475b-ba76-2696f92b1207}; ! Name of Object 1

