
OS:Version,
  {13d8fedb-f5fb-4f5a-94d2-053c6667afab}, ! Handle
  0.9.3;                                  ! Version Identifier

OS:SizingPeriod:DesignDay,
  {884d16eb-9dfb-4fa2-b59e-2ab38091b97b}, ! Handle
  Bozeman Gallatin Field Ann Clg .4% Condns DB=>MWB, ! Name
  32.9,                                   ! Maximum Dry-Bulb Temperature {C}
  18.3,                                   ! Daily Dry-Bulb Temperature Range {deltaC}
  16.3,                                   ! Humidity Indicating Conditions at Maximum Dry-Bulb {BasedOnField A3}
  86135,                                  ! Barometric Pressure {Pa}
  3.8,                                    ! Wind Speed {m/s}
  0,                                      ! Wind Direction {deg}
  0,                                      ! Sky Clearness
  0,                                      ! Rain Indicator
  0,                                      ! Snow Indicator
  21,                                     ! Day of Month
  7,                                      ! Month
  SummerDesignDay,                        ! Day Type
  0,                                      ! Daylight Saving Time Indicator
  Wetbulb,                                ! Humidity Indicating Type
  ,                                       ! Humidity Indicating Day Schedule Name
  DefaultMultipliers,                     ! Dry-Bulb Temperature Range Modifier Type
  ,                                       ! Dry-Bulb Temperature Range Modifier Schedule Name
  ASHRAETau,                              ! Solar Model Indicator
  ,                                       ! Beam Solar Day Schedule Name
  ,                                       ! Diffuse Solar Day Schedule Name
  0.384,                                  ! ASHRAE Taub {dimensionless}
  2.199;                                  ! ASHRAE Taud {dimensionless}

OS:ComponentData,
  {5861354f-d5a6-402f-881a-e28a6c5fe6c4}, ! Handle
  Component Data 1,                       ! Name
  {cf24f106-6121-4654-a86a-2324543ac00a}, ! UUID
  {da56e64e-2bb9-4d7a-b925-a45ea2a86e74}, ! Version UUID
  1366308718,                             ! Creation Timestamp
  1366308718,                             ! Version Timestamp
  {884d16eb-9dfb-4fa2-b59e-2ab38091b97b}; ! Name of Object 1

