
OS:Version,
  {023b6825-0206-4b01-bbf9-3a6eb4a4b2ca}, ! Handle
  0.9.3;                                  ! Version Identifier

OS:SizingPeriod:DesignDay,
  {8e97fbed-9c92-4c7d-a7cf-520025f1886b}, ! Handle
  Athens Ben Epps Ap Ann Clg 2% Condns DB=>MWB, ! Name
  32.4,                                   ! Maximum Dry-Bulb Temperature {C}
  10.8,                                   ! Daily Dry-Bulb Temperature Range {deltaC}
  23.4,                                   ! Humidity Indicating Conditions at Maximum Dry-Bulb {BasedOnField A3}
  98428,                                  ! Barometric Pressure {Pa}
  3.5,                                    ! Wind Speed {m/s}
  270,                                    ! Wind Direction {deg}
  0,                                      ! Sky Clearness
  0,                                      ! Rain Indicator
  0,                                      ! Snow Indicator
  21,                                     ! Day of Month
  7,                                      ! Month
  SummerDesignDay,                        ! Day Type
  0,                                      ! Daylight Saving Time Indicator
  Wetbulb,                                ! Humidity Indicating Type
  ,                                       ! Humidity Indicating Day Schedule Name
  DefaultMultipliers,                     ! Dry-Bulb Temperature Range Modifier Type
  ,                                       ! Dry-Bulb Temperature Range Modifier Schedule Name
  ASHRAETau,                              ! Solar Model Indicator
  ,                                       ! Beam Solar Day Schedule Name
  ,                                       ! Diffuse Solar Day Schedule Name
  0.539,                                  ! ASHRAE Taub {dimensionless}
  1.828;                                  ! ASHRAE Taud {dimensionless}

OS:ComponentData,
  {ebf727ed-b931-4ac1-ad70-61a98b5b4a63}, ! Handle
  Component Data 1,                       ! Name
  {ed233845-8648-4602-87ee-df3325c9a2f5}, ! UUID
  {4d318d6e-8dc0-482e-b650-bf4f0ca32667}, ! Version UUID
  1366306965,                             ! Creation Timestamp
  1366306965,                             ! Version Timestamp
  {8e97fbed-9c92-4c7d-a7cf-520025f1886b}; ! Name of Object 1

