
OS:Version,
  {416f4f5b-d1fc-4fd6-8424-72ebf1387850}, ! Handle
  0.9.3;                                  ! Version Identifier

OS:SizingPeriod:DesignDay,
  {29034631-343e-403c-b0ef-99971de78ef1}, ! Handle
  Key West Nas Ann Clg 1% Condns WB=>MDB, ! Name
  30.5,                                   ! Maximum Dry-Bulb Temperature {C}
  5.2,                                    ! Daily Dry-Bulb Temperature Range {deltaC}
  27,                                     ! Humidity Indicating Conditions at Maximum Dry-Bulb {BasedOnField A3}
  101241,                                 ! Barometric Pressure {Pa}
  3.9,                                    ! Wind Speed {m/s}
  120,                                    ! Wind Direction {deg}
  0,                                      ! Sky Clearness
  0,                                      ! Rain Indicator
  0,                                      ! Snow Indicator
  21,                                     ! Day of Month
  8,                                      ! Month
  SummerDesignDay,                        ! Day Type
  0,                                      ! Daylight Saving Time Indicator
  Wetbulb,                                ! Humidity Indicating Type
  ,                                       ! Humidity Indicating Day Schedule Name
  DefaultMultipliers,                     ! Dry-Bulb Temperature Range Modifier Type
  ,                                       ! Dry-Bulb Temperature Range Modifier Schedule Name
  ASHRAETau,                              ! Solar Model Indicator
  ,                                       ! Beam Solar Day Schedule Name
  ,                                       ! Diffuse Solar Day Schedule Name
  0.462,                                  ! ASHRAE Taub {dimensionless}
  2.192;                                  ! ASHRAE Taud {dimensionless}

OS:ComponentData,
  {485fd912-5a11-4207-8f75-13104b801a87}, ! Handle
  Component Data 1,                       ! Name
  {b982fa53-16bd-4e2d-abcc-d205f4ffee24}, ! UUID
  {b208d7be-fa36-43e1-8896-ef494d1e758e}, ! Version UUID
  1366306840,                             ! Creation Timestamp
  1366306840,                             ! Version Timestamp
  {29034631-343e-403c-b0ef-99971de78ef1}; ! Name of Object 1

