
OS:Version,
  {2be25e17-fb65-46f4-83fd-9fe2e70730d1}, ! Handle
  0.9.3;                                  ! Version Identifier

OS:SizingPeriod:DesignDay,
  {ba155819-77e5-4058-8dbe-26f4cdeffcdd}, ! Handle
  Casper Ann Clg .4% Condns Enth=>MDB,    ! Name
  28.3,                                   ! Maximum Dry-Bulb Temperature {C}
  18.1,                                   ! Daily Dry-Bulb Temperature Range {deltaC}
  55300,                                  ! Humidity Indicating Conditions at Maximum Dry-Bulb {BasedOnField A3}
  83400,                                  ! Barometric Pressure {Pa}
  5.5,                                    ! Wind Speed {m/s}
  230,                                    ! Wind Direction {deg}
  0,                                      ! Sky Clearness
  0,                                      ! Rain Indicator
  0,                                      ! Snow Indicator
  21,                                     ! Day of Month
  7,                                      ! Month
  SummerDesignDay,                        ! Day Type
  0,                                      ! Daylight Saving Time Indicator
  Enthalpy,                               ! Humidity Indicating Type
  ,                                       ! Humidity Indicating Day Schedule Name
  DefaultMultipliers,                     ! Dry-Bulb Temperature Range Modifier Type
  ,                                       ! Dry-Bulb Temperature Range Modifier Schedule Name
  ASHRAETau,                              ! Solar Model Indicator
  ,                                       ! Beam Solar Day Schedule Name
  ,                                       ! Diffuse Solar Day Schedule Name
  0.411,                                  ! ASHRAE Taub {dimensionless}
  2.017;                                  ! ASHRAE Taud {dimensionless}

OS:ComponentData,
  {9952445b-eb21-4e36-b420-db858ed02c41}, ! Handle
  Component Data 1,                       ! Name
  {cc6f4c46-3406-4dea-acd8-53a3e32221a6}, ! UUID
  {10cf4d2d-bba1-4e15-88ff-3f8529ffd3f6}, ! Version UUID
  1366311685,                             ! Creation Timestamp
  1366311685,                             ! Version Timestamp
  {ba155819-77e5-4058-8dbe-26f4cdeffcdd}; ! Name of Object 1

