
OS:Version,
  {fec07e20-5f9a-4afe-95d6-57e6462c4a4b}, ! Handle
  0.9.3;                                  ! Version Identifier

OS:SizingPeriod:DesignDay,
  {54a75a28-4016-4ffd-a77c-59ea53d8edfd}, ! Handle
  Harlingen Rio Grande Valley I Ann Clg .4% Condns WB=>MDB, ! Name
  32.8,                                   ! Maximum Dry-Bulb Temperature {C}
  11,                                     ! Daily Dry-Bulb Temperature Range {deltaC}
  27.4,                                   ! Humidity Indicating Conditions at Maximum Dry-Bulb {BasedOnField A3}
  101205,                                 ! Barometric Pressure {Pa}
  7.3,                                    ! Wind Speed {m/s}
  150,                                    ! Wind Direction {deg}
  0,                                      ! Sky Clearness
  0,                                      ! Rain Indicator
  0,                                      ! Snow Indicator
  21,                                     ! Day of Month
  7,                                      ! Month
  SummerDesignDay,                        ! Day Type
  0,                                      ! Daylight Saving Time Indicator
  Wetbulb,                                ! Humidity Indicating Type
  ,                                       ! Humidity Indicating Day Schedule Name
  DefaultMultipliers,                     ! Dry-Bulb Temperature Range Modifier Type
  ,                                       ! Dry-Bulb Temperature Range Modifier Schedule Name
  ASHRAETau,                              ! Solar Model Indicator
  ,                                       ! Beam Solar Day Schedule Name
  ,                                       ! Diffuse Solar Day Schedule Name
  0.46,                                   ! ASHRAE Taub {dimensionless}
  2.113;                                  ! ASHRAE Taud {dimensionless}

OS:ComponentData,
  {55476582-0371-46af-ac12-aa34745f9d4d}, ! Handle
  Component Data 1,                       ! Name
  {b3a6bc4c-502b-4ebb-ae39-c5e864a49055}, ! UUID
  {f488f191-b38d-45d4-b01d-36b173f9f575}, ! Version UUID
  1366310728,                             ! Creation Timestamp
  1366310728,                             ! Version Timestamp
  {54a75a28-4016-4ffd-a77c-59ea53d8edfd}; ! Name of Object 1

