
OS:Version,
  {944d117d-5873-4702-a66e-41c36db0593a}, ! Handle
  0.9.3;                                  ! Version Identifier

OS:SizingPeriod:DesignDay,
  {467703f4-8c8f-4630-be35-d53e9a3fb19f}, ! Handle
  Lakehurst NAS Ann Clg .4% Condns Enth=>MDB, ! Name
  30.8,                                   ! Maximum Dry-Bulb Temperature {C}
  10.6,                                   ! Daily Dry-Bulb Temperature Range {deltaC}
  80600,                                  ! Humidity Indicating Conditions at Maximum Dry-Bulb {BasedOnField A3}
  100917,                                 ! Barometric Pressure {Pa}
  4,                                      ! Wind Speed {m/s}
  240,                                    ! Wind Direction {deg}
  0,                                      ! Sky Clearness
  0,                                      ! Rain Indicator
  0,                                      ! Snow Indicator
  21,                                     ! Day of Month
  7,                                      ! Month
  SummerDesignDay,                        ! Day Type
  0,                                      ! Daylight Saving Time Indicator
  Enthalpy,                               ! Humidity Indicating Type
  ,                                       ! Humidity Indicating Day Schedule Name
  DefaultMultipliers,                     ! Dry-Bulb Temperature Range Modifier Type
  ,                                       ! Dry-Bulb Temperature Range Modifier Schedule Name
  ASHRAETau,                              ! Solar Model Indicator
  ,                                       ! Beam Solar Day Schedule Name
  ,                                       ! Diffuse Solar Day Schedule Name
  0.539,                                  ! ASHRAE Taub {dimensionless}
  1.807;                                  ! ASHRAE Taud {dimensionless}

OS:ComponentData,
  {aed96292-94db-4220-9c59-905ea4686498}, ! Handle
  Component Data 1,                       ! Name
  {d4c8bf5a-2aa2-44d7-917d-b0b4dcfc47c4}, ! UUID
  {b72958a0-8b3a-4e85-8cba-ee52ef6cafef}, ! Version UUID
  1366309309,                             ! Creation Timestamp
  1366309309,                             ! Version Timestamp
  {467703f4-8c8f-4630-be35-d53e9a3fb19f}; ! Name of Object 1

