
OS:Version,
  {1d1abd2a-647d-48ee-983c-2fbb5fa1eb63}, ! Handle
  0.9.3;                                  ! Version Identifier

OS:SizingPeriod:DesignDay,
  {5cc0b497-1143-4e8e-91e2-be17f4383227}, ! Handle
  Colorado Springs Ann Hum_n 99.6% Condns DP=>MCDB, ! Name
  -11.3,                                  ! Maximum Dry-Bulb Temperature {C}
  0,                                      ! Daily Dry-Bulb Temperature Range {deltaC}
  -24,                                    ! Humidity Indicating Conditions at Maximum Dry-Bulb {BasedOnField A3}
  80677,                                  ! Barometric Pressure {Pa}
  2.8,                                    ! Wind Speed {m/s}
  20,                                     ! Wind Direction {deg}
  0,                                      ! Sky Clearness
  0,                                      ! Rain Indicator
  0,                                      ! Snow Indicator
  21,                                     ! Day of Month
  12,                                     ! Month
  WinterDesignDay,                        ! Day Type
  0,                                      ! Daylight Saving Time Indicator
  Dewpoint,                               ! Humidity Indicating Type
  ,                                       ! Humidity Indicating Day Schedule Name
  DefaultMultipliers,                     ! Dry-Bulb Temperature Range Modifier Type
  ,                                       ! Dry-Bulb Temperature Range Modifier Schedule Name
  ASHRAEClearSky;                         ! Solar Model Indicator

OS:ComponentData,
  {5604f7b6-3a4c-4c43-9a15-474cbcfbf0bb}, ! Handle
  Component Data 1,                       ! Name
  {8d5b8227-7d47-4c81-9a88-eeadd6104221}, ! UUID
  {9b99d8d2-e431-41a0-8846-03ce219e893e}, ! Version UUID
  1366306658,                             ! Creation Timestamp
  1366306658,                             ! Version Timestamp
  {5cc0b497-1143-4e8e-91e2-be17f4383227}; ! Name of Object 1

