
OS:Version,
  {e29595f4-ed82-426b-8c37-39a58067f519}, ! Handle
  0.9.3;                                  ! Version Identifier

OS:SizingPeriod:DesignDay,
  {f5eb15d7-1ac9-4c9e-a10e-11e26b448e21}, ! Handle
  Green Bay Austin Straubel Int Ann Htg Wind 99.6% Condns WS=>MCDB, ! Name
  -9.1,                                   ! Maximum Dry-Bulb Temperature {C}
  0,                                      ! Daily Dry-Bulb Temperature Range {deltaC}
  -9.1,                                   ! Humidity Indicating Conditions at Maximum Dry-Bulb {BasedOnField A3}
  98839,                                  ! Barometric Pressure {Pa}
  11.7,                                   ! Wind Speed {m/s}
  280,                                    ! Wind Direction {deg}
  0,                                      ! Sky Clearness
  0,                                      ! Rain Indicator
  0,                                      ! Snow Indicator
  21,                                     ! Day of Month
  1,                                      ! Month
  WinterDesignDay,                        ! Day Type
  0,                                      ! Daylight Saving Time Indicator
  Wetbulb,                                ! Humidity Indicating Type
  ,                                       ! Humidity Indicating Day Schedule Name
  DefaultMultipliers,                     ! Dry-Bulb Temperature Range Modifier Type
  ,                                       ! Dry-Bulb Temperature Range Modifier Schedule Name
  ASHRAEClearSky;                         ! Solar Model Indicator

OS:ComponentData,
  {e4abf563-61bd-4333-aeca-a7b47b0bc5f9}, ! Handle
  Component Data 1,                       ! Name
  {669c8676-6d83-4780-89b5-ac96704bba5c}, ! UUID
  {2ed4a943-5640-461c-87a0-bb211ab944d5}, ! Version UUID
  1366311488,                             ! Creation Timestamp
  1366311488,                             ! Version Timestamp
  {f5eb15d7-1ac9-4c9e-a10e-11e26b448e21}; ! Name of Object 1

