
OS:Version,
  {6c965bd6-1fc4-4893-a981-3897a661c05d}, ! Handle
  0.9.3;                                  ! Version Identifier

OS:SizingPeriod:DesignDay,
  {07d525c5-54d6-4548-a82e-712d0553cb52}, ! Handle
  Lafayette Purdue Univ Ap Ann Clg 2% Condns Enth=>MDB, ! Name
  28.8,                                   ! Maximum Dry-Bulb Temperature {C}
  11.1,                                   ! Daily Dry-Bulb Temperature Range {deltaC}
  73900,                                  ! Humidity Indicating Conditions at Maximum Dry-Bulb {BasedOnField A3}
  99146,                                  ! Barometric Pressure {Pa}
  4.8,                                    ! Wind Speed {m/s}
  230,                                    ! Wind Direction {deg}
  0,                                      ! Sky Clearness
  0,                                      ! Rain Indicator
  0,                                      ! Snow Indicator
  21,                                     ! Day of Month
  7,                                      ! Month
  SummerDesignDay,                        ! Day Type
  0,                                      ! Daylight Saving Time Indicator
  Enthalpy,                               ! Humidity Indicating Type
  ,                                       ! Humidity Indicating Day Schedule Name
  DefaultMultipliers,                     ! Dry-Bulb Temperature Range Modifier Type
  ,                                       ! Dry-Bulb Temperature Range Modifier Schedule Name
  ASHRAETau,                              ! Solar Model Indicator
  ,                                       ! Beam Solar Day Schedule Name
  ,                                       ! Diffuse Solar Day Schedule Name
  0.463,                                  ! ASHRAE Taub {dimensionless}
  2.02;                                   ! ASHRAE Taud {dimensionless}

OS:ComponentData,
  {1f2c4e56-e145-458b-9033-f5ae5ddcae6c}, ! Handle
  Component Data 1,                       ! Name
  {7e71567d-df97-4f84-b480-92327a601b04}, ! UUID
  {ea8bbca9-a627-4dd1-823d-643033cdf877}, ! Version UUID
  1366307473,                             ! Creation Timestamp
  1366307473,                             ! Version Timestamp
  {07d525c5-54d6-4548-a82e-712d0553cb52}; ! Name of Object 1

