
OS:Version,
  {1a7b3e1d-3e44-48c1-b4ab-a8ed6aaf4174}, ! Handle
  0.9.3;                                  ! Version Identifier

OS:SizingPeriod:DesignDay,
  {8d61a5fc-346c-4481-85af-10b2c1dc8600}, ! Handle
  Hooper Bay Ann Hum_n 99.6% Condns DP=>MCDB, ! Name
  -24.3,                                  ! Maximum Dry-Bulb Temperature {C}
  0,                                      ! Daily Dry-Bulb Temperature Range {deltaC}
  -33,                                    ! Humidity Indicating Conditions at Maximum Dry-Bulb {BasedOnField A3}
  101253,                                 ! Barometric Pressure {Pa}
  4.6,                                    ! Wind Speed {m/s}
  100,                                    ! Wind Direction {deg}
  0,                                      ! Sky Clearness
  0,                                      ! Rain Indicator
  0,                                      ! Snow Indicator
  21,                                     ! Day of Month
  1,                                      ! Month
  WinterDesignDay,                        ! Day Type
  0,                                      ! Daylight Saving Time Indicator
  Dewpoint,                               ! Humidity Indicating Type
  ,                                       ! Humidity Indicating Day Schedule Name
  DefaultMultipliers,                     ! Dry-Bulb Temperature Range Modifier Type
  ,                                       ! Dry-Bulb Temperature Range Modifier Schedule Name
  ASHRAEClearSky;                         ! Solar Model Indicator

OS:ComponentData,
  {898dc950-69fc-45b6-a9a9-558a15f07cff}, ! Handle
  Component Data 1,                       ! Name
  {f5fdcad1-81d5-4cb1-b86f-247a28ef1769}, ! UUID
  {5ff5a4bf-864e-4a8a-bf92-0ccdb3006b74}, ! Version UUID
  1366305317,                             ! Creation Timestamp
  1366305317,                             ! Version Timestamp
  {8d61a5fc-346c-4481-85af-10b2c1dc8600}; ! Name of Object 1

