
OS:Version,
  {07d7d181-1e35-48fc-af0c-53f7555f89e0}, ! Handle
  0.9.3;                                  ! Version Identifier

OS:SizingPeriod:DesignDay,
  {4d6478c9-b53e-420a-997f-79eed517d8a6}, ! Handle
  Fort Worth Alliance Ann Clg 2% Condns DP=>MDB, ! Name
  27.8,                                   ! Maximum Dry-Bulb Temperature {C}
  11.7,                                   ! Daily Dry-Bulb Temperature Range {deltaC}
  22.8,                                   ! Humidity Indicating Conditions at Maximum Dry-Bulb {BasedOnField A3}
  98639,                                  ! Barometric Pressure {Pa}
  4.5,                                    ! Wind Speed {m/s}
  170,                                    ! Wind Direction {deg}
  0,                                      ! Sky Clearness
  0,                                      ! Rain Indicator
  0,                                      ! Snow Indicator
  21,                                     ! Day of Month
  7,                                      ! Month
  SummerDesignDay,                        ! Day Type
  0,                                      ! Daylight Saving Time Indicator
  Dewpoint,                               ! Humidity Indicating Type
  ,                                       ! Humidity Indicating Day Schedule Name
  DefaultMultipliers,                     ! Dry-Bulb Temperature Range Modifier Type
  ,                                       ! Dry-Bulb Temperature Range Modifier Schedule Name
  ASHRAETau,                              ! Solar Model Indicator
  ,                                       ! Beam Solar Day Schedule Name
  ,                                       ! Diffuse Solar Day Schedule Name
  0.46,                                   ! ASHRAE Taub {dimensionless}
  2.088;                                  ! ASHRAE Taud {dimensionless}

OS:ComponentData,
  {98d0c29c-0976-4402-83a2-c689604bc09e}, ! Handle
  Component Data 1,                       ! Name
  {a7663dab-52bb-4e90-822e-bd248453b48b}, ! UUID
  {39a77df7-26f0-4c96-8703-cf1c3e6189be}, ! Version UUID
  1366310698,                             ! Creation Timestamp
  1366310698,                             ! Version Timestamp
  {4d6478c9-b53e-420a-997f-79eed517d8a6}; ! Name of Object 1

