
OS:Version,
  {3a402b3b-90de-485b-a23a-6069d3309e8f}, ! Handle
  0.9.3;                                  ! Version Identifier

OS:SizingPeriod:DesignDay,
  {ddc140ab-a3d2-4dd8-9e03-4eb776d5db85}, ! Handle
  Abilene Dyess Afb Ann Htg Wind 99.6% Condns WS=>MCDB, ! Name
  11,                                     ! Maximum Dry-Bulb Temperature {C}
  0,                                      ! Daily Dry-Bulb Temperature Range {deltaC}
  11,                                     ! Humidity Indicating Conditions at Maximum Dry-Bulb {BasedOnField A3}
  94947,                                  ! Barometric Pressure {Pa}
  12,                                     ! Wind Speed {m/s}
  10,                                     ! Wind Direction {deg}
  0,                                      ! Sky Clearness
  0,                                      ! Rain Indicator
  0,                                      ! Snow Indicator
  21,                                     ! Day of Month
  1,                                      ! Month
  WinterDesignDay,                        ! Day Type
  0,                                      ! Daylight Saving Time Indicator
  Wetbulb,                                ! Humidity Indicating Type
  ,                                       ! Humidity Indicating Day Schedule Name
  DefaultMultipliers,                     ! Dry-Bulb Temperature Range Modifier Type
  ,                                       ! Dry-Bulb Temperature Range Modifier Schedule Name
  ASHRAEClearSky;                         ! Solar Model Indicator

