
OS:Version,
  {e2890686-01cb-4453-ac05-c2c1a65df4d3}, ! Handle
  0.9.3;                                  ! Version Identifier

OS:SizingPeriod:DesignDay,
  {ad0338de-e182-4340-82e1-0e515ae1886a}, ! Handle
  Andrews Afb Ann Htg Wind 99.6% Condns WS=>MCDB, ! Name
  0.2,                                    ! Maximum Dry-Bulb Temperature {C}
  0,                                      ! Daily Dry-Bulb Temperature Range {deltaC}
  0.2,                                    ! Humidity Indicating Conditions at Maximum Dry-Bulb {BasedOnField A3}
  100296,                                 ! Barometric Pressure {Pa}
  12.7,                                   ! Wind Speed {m/s}
  320,                                    ! Wind Direction {deg}
  0,                                      ! Sky Clearness
  0,                                      ! Rain Indicator
  0,                                      ! Snow Indicator
  21,                                     ! Day of Month
  1,                                      ! Month
  WinterDesignDay,                        ! Day Type
  0,                                      ! Daylight Saving Time Indicator
  Wetbulb,                                ! Humidity Indicating Type
  ,                                       ! Humidity Indicating Day Schedule Name
  DefaultMultipliers,                     ! Dry-Bulb Temperature Range Modifier Type
  ,                                       ! Dry-Bulb Temperature Range Modifier Schedule Name
  ASHRAEClearSky;                         ! Solar Model Indicator

OS:ComponentData,
  {1b26f237-5f99-4602-85da-9ddfb3dce08c}, ! Handle
  Component Data 1,                       ! Name
  {5ad780ad-5629-41fc-bd85-23abe41c8263}, ! UUID
  {8f7e8d6f-dbe2-4900-ba90-8b8a5efc4eac}, ! Version UUID
  1366307833,                             ! Creation Timestamp
  1366307833,                             ! Version Timestamp
  {ad0338de-e182-4340-82e1-0e515ae1886a}; ! Name of Object 1

