
OS:Version,
  {6c186d95-8fca-4b1f-9aa9-ee5af7602231}, ! Handle
  0.9.3;                                  ! Version Identifier

OS:SizingPeriod:DesignDay,
  {b41c3028-c1c1-42ec-ad49-990ce5fcd741}, ! Handle
  Fort Worth Alliance Ann Clg 1% Condns Enth=>MDB, ! Name
  33.3,                                   ! Maximum Dry-Bulb Temperature {C}
  11.7,                                   ! Daily Dry-Bulb Temperature Range {deltaC}
  78500,                                  ! Humidity Indicating Conditions at Maximum Dry-Bulb {BasedOnField A3}
  98639,                                  ! Barometric Pressure {Pa}
  4.5,                                    ! Wind Speed {m/s}
  170,                                    ! Wind Direction {deg}
  0,                                      ! Sky Clearness
  0,                                      ! Rain Indicator
  0,                                      ! Snow Indicator
  21,                                     ! Day of Month
  7,                                      ! Month
  SummerDesignDay,                        ! Day Type
  0,                                      ! Daylight Saving Time Indicator
  Enthalpy,                               ! Humidity Indicating Type
  ,                                       ! Humidity Indicating Day Schedule Name
  DefaultMultipliers,                     ! Dry-Bulb Temperature Range Modifier Type
  ,                                       ! Dry-Bulb Temperature Range Modifier Schedule Name
  ASHRAETau,                              ! Solar Model Indicator
  ,                                       ! Beam Solar Day Schedule Name
  ,                                       ! Diffuse Solar Day Schedule Name
  0.46,                                   ! ASHRAE Taub {dimensionless}
  2.088;                                  ! ASHRAE Taud {dimensionless}

OS:ComponentData,
  {bafe5e56-5196-4d10-b481-33b9646ba73c}, ! Handle
  Component Data 1,                       ! Name
  {5a10880f-f6c0-4aa3-b14a-be5d4ac1a761}, ! UUID
  {16a00999-207e-456a-a461-53ff2ea9b731}, ! Version UUID
  1366310699,                             ! Creation Timestamp
  1366310699,                             ! Version Timestamp
  {b41c3028-c1c1-42ec-ad49-990ce5fcd741}; ! Name of Object 1

