
OS:Version,
  {d8ef0b45-ef16-4422-85c7-4f0d07080f8e}, ! Handle
  0.9.3;                                  ! Version Identifier

OS:SizingPeriod:DesignDay,
  {bcfe2bae-7fee-4085-950c-d0fb8e931e5f}, ! Handle
  Casper Natrona Co Intl Ap Ann Clg .4% Condns DP=>MDB, ! Name
  19.2,                                   ! Maximum Dry-Bulb Temperature {C}
  18.1,                                   ! Daily Dry-Bulb Temperature Range {deltaC}
  14.4,                                   ! Humidity Indicating Conditions at Maximum Dry-Bulb {BasedOnField A3}
  83246,                                  ! Barometric Pressure {Pa}
  5.5,                                    ! Wind Speed {m/s}
  230,                                    ! Wind Direction {deg}
  0,                                      ! Sky Clearness
  0,                                      ! Rain Indicator
  0,                                      ! Snow Indicator
  21,                                     ! Day of Month
  7,                                      ! Month
  SummerDesignDay,                        ! Day Type
  0,                                      ! Daylight Saving Time Indicator
  Dewpoint,                               ! Humidity Indicating Type
  ,                                       ! Humidity Indicating Day Schedule Name
  DefaultMultipliers,                     ! Dry-Bulb Temperature Range Modifier Type
  ,                                       ! Dry-Bulb Temperature Range Modifier Schedule Name
  ASHRAETau,                              ! Solar Model Indicator
  ,                                       ! Beam Solar Day Schedule Name
  ,                                       ! Diffuse Solar Day Schedule Name
  0.411,                                  ! ASHRAE Taub {dimensionless}
  2.017;                                  ! ASHRAE Taud {dimensionless}

OS:ComponentData,
  {ed93d066-4ed8-4c73-a0f9-e4409faebdaf}, ! Handle
  Component Data 1,                       ! Name
  {55456a22-832d-462d-b43b-0094d55f9903}, ! UUID
  {4315ad5d-3b69-444a-9180-8e1fc12316c1}, ! Version UUID
  1366311690,                             ! Creation Timestamp
  1366311690,                             ! Version Timestamp
  {bcfe2bae-7fee-4085-950c-d0fb8e931e5f}; ! Name of Object 1

