
OS:Version,
  {b88ac356-3cc5-4a36-9bb1-f88f753d20e5}, ! Handle
  0.9.3;                                  ! Version Identifier

OS:SizingPeriod:DesignDay,
  {1c4169cb-ee09-4756-9928-b9b807b1ad6d}, ! Handle
  Bakersfield Meadows Field Ann Hum_n 99.6% Condns DP=>MCDB, ! Name
  10,                                     ! Maximum Dry-Bulb Temperature {C}
  0,                                      ! Daily Dry-Bulb Temperature Range {deltaC}
  -6.2,                                   ! Humidity Indicating Conditions at Maximum Dry-Bulb {BasedOnField A3}
  99548,                                  ! Barometric Pressure {Pa}
  1.7,                                    ! Wind Speed {m/s}
  90,                                     ! Wind Direction {deg}
  0,                                      ! Sky Clearness
  0,                                      ! Rain Indicator
  0,                                      ! Snow Indicator
  21,                                     ! Day of Month
  12,                                     ! Month
  WinterDesignDay,                        ! Day Type
  0,                                      ! Daylight Saving Time Indicator
  Dewpoint,                               ! Humidity Indicating Type
  ,                                       ! Humidity Indicating Day Schedule Name
  DefaultMultipliers,                     ! Dry-Bulb Temperature Range Modifier Type
  ,                                       ! Dry-Bulb Temperature Range Modifier Schedule Name
  ASHRAEClearSky;                         ! Solar Model Indicator

OS:ComponentData,
  {ae72274f-1248-44c9-8e7a-51708c837e1a}, ! Handle
  Component Data 1,                       ! Name
  {d56827ea-16c0-4f14-aef8-bcc7cf3fd48c}, ! UUID
  {67ef0cc4-402a-4667-b034-d606d3261006}, ! Version UUID
  1366306364,                             ! Creation Timestamp
  1366306364,                             ! Version Timestamp
  {1c4169cb-ee09-4756-9928-b9b807b1ad6d}; ! Name of Object 1

