
OS:Version,
  {1cd03697-ecf1-47f5-879a-607b771ad686}, ! Handle
  0.9.3;                                  ! Version Identifier

OS:SizingPeriod:DesignDay,
  {a41dd863-5ac4-48fc-94f6-63ada1bd4195}, ! Handle
  Akron Akron Canton Reg Ap Ann Htg Wind 99.6% Condns WS=>MCDB, ! Name
  -1.3,                                   ! Maximum Dry-Bulb Temperature {C}
  0,                                      ! Daily Dry-Bulb Temperature Range {deltaC}
  -1.3,                                   ! Humidity Indicating Conditions at Maximum Dry-Bulb {BasedOnField A3}
  96982,                                  ! Barometric Pressure {Pa}
  12,                                     ! Wind Speed {m/s}
  240,                                    ! Wind Direction {deg}
  0,                                      ! Sky Clearness
  0,                                      ! Rain Indicator
  0,                                      ! Snow Indicator
  21,                                     ! Day of Month
  1,                                      ! Month
  WinterDesignDay,                        ! Day Type
  0,                                      ! Daylight Saving Time Indicator
  Wetbulb,                                ! Humidity Indicating Type
  ,                                       ! Humidity Indicating Day Schedule Name
  DefaultMultipliers,                     ! Dry-Bulb Temperature Range Modifier Type
  ,                                       ! Dry-Bulb Temperature Range Modifier Schedule Name
  ASHRAEClearSky;                         ! Solar Model Indicator

OS:ComponentData,
  {900f3854-599c-4e54-8575-2b136bd12837}, ! Handle
  Component Data 1,                       ! Name
  {1952a161-dfe1-46eb-91e1-66bf1a8b0c56}, ! UUID
  {ce8a4fb9-7a3c-45fe-b1a6-63c12a77026a}, ! Version UUID
  1366309769,                             ! Creation Timestamp
  1366309769,                             ! Version Timestamp
  {a41dd863-5ac4-48fc-94f6-63ada1bd4195}; ! Name of Object 1

