
OS:Version,
  {6a1a1e81-3b4c-4eb1-8a78-553525cd975b}, ! Handle
  0.9.3;                                  ! Version Identifier

OS:SizingPeriod:DesignDay,
  {5118c6e5-2833-4183-88b1-25a2ecefe673}, ! Handle
  Jacksonville/Int'l Air Ann Clg 2% Condns Enth=>MDB, ! Name
  30.9,                                   ! Maximum Dry-Bulb Temperature {C}
  10,                                     ! Daily Dry-Bulb Temperature Range {deltaC}
  79300,                                  ! Humidity Indicating Conditions at Maximum Dry-Bulb {BasedOnField A3}
  101217,                                 ! Barometric Pressure {Pa}
  3.6,                                    ! Wind Speed {m/s}
  260,                                    ! Wind Direction {deg}
  0,                                      ! Sky Clearness
  0,                                      ! Rain Indicator
  0,                                      ! Snow Indicator
  21,                                     ! Day of Month
  7,                                      ! Month
  SummerDesignDay,                        ! Day Type
  0,                                      ! Daylight Saving Time Indicator
  Enthalpy,                               ! Humidity Indicating Type
  ,                                       ! Humidity Indicating Day Schedule Name
  DefaultMultipliers,                     ! Dry-Bulb Temperature Range Modifier Type
  ,                                       ! Dry-Bulb Temperature Range Modifier Schedule Name
  ASHRAETau,                              ! Solar Model Indicator
  ,                                       ! Beam Solar Day Schedule Name
  ,                                       ! Diffuse Solar Day Schedule Name
  0.541,                                  ! ASHRAE Taub {dimensionless}
  1.863;                                  ! ASHRAE Taud {dimensionless}

OS:ComponentData,
  {da873063-d99a-4b72-839f-ae198c6ed1b9}, ! Handle
  Component Data 1,                       ! Name
  {76bb1e58-de89-4363-8f0c-4d492f5658dd}, ! UUID
  {86b23580-aeeb-418c-81b9-0e5e11964532}, ! Version UUID
  1366306821,                             ! Creation Timestamp
  1366306821,                             ! Version Timestamp
  {5118c6e5-2833-4183-88b1-25a2ecefe673}; ! Name of Object 1

