
OS:Version,
  {21f89bec-363a-4737-9ee6-8f0753497ff9}, ! Handle
  0.9.3;                                  ! Version Identifier

OS:SizingPeriod:DesignDay,
  {9871bcdf-226d-40e1-bae2-19e4e97c1054}, ! Handle
  ALLENTOWN Ann Htg Wind 99% Condns WS=>MCDB, ! Name
  -3.7,                                   ! Maximum Dry-Bulb Temperature {C}
  0,                                      ! Daily Dry-Bulb Temperature Range {deltaC}
  -3.7,                                   ! Humidity Indicating Conditions at Maximum Dry-Bulb {BasedOnField A3}
  99927,                                  ! Barometric Pressure {Pa}
  11.5,                                   ! Wind Speed {m/s}
  330,                                    ! Wind Direction {deg}
  0,                                      ! Sky Clearness
  0,                                      ! Rain Indicator
  0,                                      ! Snow Indicator
  21,                                     ! Day of Month
  1,                                      ! Month
  WinterDesignDay,                        ! Day Type
  0,                                      ! Daylight Saving Time Indicator
  Wetbulb,                                ! Humidity Indicating Type
  ,                                       ! Humidity Indicating Day Schedule Name
  DefaultMultipliers,                     ! Dry-Bulb Temperature Range Modifier Type
  ,                                       ! Dry-Bulb Temperature Range Modifier Schedule Name
  ASHRAEClearSky;                         ! Solar Model Indicator

OS:ComponentData,
  {f0c09bbc-6710-4430-a328-80ba98ff31c1}, ! Handle
  Component Data 1,                       ! Name
  {dce4c890-a147-47b2-bafe-806a99591287}, ! UUID
  {0a82c76f-af88-4ea7-9e60-7101afd0bb1f}, ! Version UUID
  1366310135,                             ! Creation Timestamp
  1366310135,                             ! Version Timestamp
  {9871bcdf-226d-40e1-bae2-19e4e97c1054}; ! Name of Object 1

