
OS:Version,
  {b51c1057-8be2-49b8-9f92-d9678add5a84}, ! Handle
  0.9.3;                                  ! Version Identifier

OS:SizingPeriod:DesignDay,
  {716c1834-8bbd-4bbd-ad18-a869ef963911}, ! Handle
  Lufkin Angelina Co Ann Clg 1% Condns WB=>MDB, ! Name
  31.9,                                   ! Maximum Dry-Bulb Temperature {C}
  11.4,                                   ! Daily Dry-Bulb Temperature Range {deltaC}
  26.2,                                   ! Humidity Indicating Conditions at Maximum Dry-Bulb {BasedOnField A3}
  100296,                                 ! Barometric Pressure {Pa}
  3.4,                                    ! Wind Speed {m/s}
  200,                                    ! Wind Direction {deg}
  0,                                      ! Sky Clearness
  0,                                      ! Rain Indicator
  0,                                      ! Snow Indicator
  21,                                     ! Day of Month
  7,                                      ! Month
  SummerDesignDay,                        ! Day Type
  0,                                      ! Daylight Saving Time Indicator
  Wetbulb,                                ! Humidity Indicating Type
  ,                                       ! Humidity Indicating Day Schedule Name
  DefaultMultipliers,                     ! Dry-Bulb Temperature Range Modifier Type
  ,                                       ! Dry-Bulb Temperature Range Modifier Schedule Name
  ASHRAETau,                              ! Solar Model Indicator
  ,                                       ! Beam Solar Day Schedule Name
  ,                                       ! Diffuse Solar Day Schedule Name
  0.491,                                  ! ASHRAE Taub {dimensionless}
  2.003;                                  ! ASHRAE Taud {dimensionless}

OS:ComponentData,
  {4c8d8109-5cc2-40f5-aa41-feae43689f4d}, ! Handle
  Component Data 1,                       ! Name
  {211583d7-fc9e-44d4-a1ab-7d3ae55dc0b5}, ! UUID
  {8f3c7d45-e6aa-44ab-bdf6-2102b520ebcd}, ! Version UUID
  1366310807,                             ! Creation Timestamp
  1366310807,                             ! Version Timestamp
  {716c1834-8bbd-4bbd-ad18-a869ef963911}; ! Name of Object 1

