
OS:Version,
  {b968b83f-dc8c-4646-b0d8-d67d0a99156e}, ! Handle
  0.9.3;                                  ! Version Identifier

OS:SizingPeriod:DesignDay,
  {8c3c3a53-7d44-4ff7-9f13-f5e33c2d759b}, ! Handle
  Florence Regional Ap Ann Hum_n 99.6% Condns DP=>MCDB, ! Name
  0.5,                                    ! Maximum Dry-Bulb Temperature {C}
  0,                                      ! Daily Dry-Bulb Temperature Range {deltaC}
  -14.7,                                  ! Humidity Indicating Conditions at Maximum Dry-Bulb {BasedOnField A3}
  100798,                                 ! Barometric Pressure {Pa}
  2.6,                                    ! Wind Speed {m/s}
  0,                                      ! Wind Direction {deg}
  0,                                      ! Sky Clearness
  0,                                      ! Rain Indicator
  0,                                      ! Snow Indicator
  21,                                     ! Day of Month
  1,                                      ! Month
  WinterDesignDay,                        ! Day Type
  0,                                      ! Daylight Saving Time Indicator
  Dewpoint,                               ! Humidity Indicating Type
  ,                                       ! Humidity Indicating Day Schedule Name
  DefaultMultipliers,                     ! Dry-Bulb Temperature Range Modifier Type
  ,                                       ! Dry-Bulb Temperature Range Modifier Schedule Name
  ASHRAEClearSky;                         ! Solar Model Indicator

OS:ComponentData,
  {3c6baa08-63f9-414f-9671-c06c4d709c56}, ! Handle
  Component Data 1,                       ! Name
  {1e4f2e90-7cc0-4022-afa7-70eed16de1bd}, ! UUID
  {9b5d9d06-4af9-485c-aa37-1ee7bbe6cd4c}, ! Version UUID
  1366310351,                             ! Creation Timestamp
  1366310351,                             ! Version Timestamp
  {8c3c3a53-7d44-4ff7-9f13-f5e33c2d759b}; ! Name of Object 1

