
OS:Version,
  {551d3255-8811-462c-bebc-749128fe81b8}, ! Handle
  0.9.3;                                  ! Version Identifier

OS:SizingPeriod:DesignDay,
  {19e20112-df6f-4605-bb6d-d8db9af9fee3}, ! Handle
  Lander Hunt Field Ann Clg 1% Condns WB=>MDB, ! Name
  27.9,                                   ! Maximum Dry-Bulb Temperature {C}
  15.6,                                   ! Daily Dry-Bulb Temperature Range {deltaC}
  16,                                     ! Humidity Indicating Conditions at Maximum Dry-Bulb {BasedOnField A3}
  82562,                                  ! Barometric Pressure {Pa}
  4.2,                                    ! Wind Speed {m/s}
  220,                                    ! Wind Direction {deg}
  0,                                      ! Sky Clearness
  0,                                      ! Rain Indicator
  0,                                      ! Snow Indicator
  21,                                     ! Day of Month
  7,                                      ! Month
  SummerDesignDay,                        ! Day Type
  0,                                      ! Daylight Saving Time Indicator
  Wetbulb,                                ! Humidity Indicating Type
  ,                                       ! Humidity Indicating Day Schedule Name
  DefaultMultipliers,                     ! Dry-Bulb Temperature Range Modifier Type
  ,                                       ! Dry-Bulb Temperature Range Modifier Schedule Name
  ASHRAETau,                              ! Solar Model Indicator
  ,                                       ! Beam Solar Day Schedule Name
  ,                                       ! Diffuse Solar Day Schedule Name
  0.405,                                  ! ASHRAE Taub {dimensionless}
  2.036;                                  ! ASHRAE Taud {dimensionless}

OS:ComponentData,
  {61e1327b-32bc-4d98-8de3-4ed35da87aa6}, ! Handle
  Component Data 1,                       ! Name
  {0d13d790-b9c8-42d0-9126-279dc6117105}, ! UUID
  {57e9c650-33ab-424e-a17c-5e949dc9980f}, ! Version UUID
  1366311750,                             ! Creation Timestamp
  1366311750,                             ! Version Timestamp
  {19e20112-df6f-4605-bb6d-d8db9af9fee3}; ! Name of Object 1

