
OS:Version,
  {1e314196-f747-4e65-bd2d-a44afe98952a}, ! Handle
  0.9.3;                                  ! Version Identifier

OS:SizingPeriod:DesignDay,
  {1be3333d-af3d-410c-839e-2d48c3a62b11}, ! Handle
  KING_SALMON Ann Clg 2% Condns WB=>MDB,  ! Name
  17.3,                                   ! Maximum Dry-Bulb Temperature {C}
  8.6,                                    ! Daily Dry-Bulb Temperature Range {deltaC}
  13.9,                                   ! Humidity Indicating Conditions at Maximum Dry-Bulb {BasedOnField A3}
  101145,                                 ! Barometric Pressure {Pa}
  4.8,                                    ! Wind Speed {m/s}
  270,                                    ! Wind Direction {deg}
  0,                                      ! Sky Clearness
  0,                                      ! Rain Indicator
  0,                                      ! Snow Indicator
  21,                                     ! Day of Month
  7,                                      ! Month
  SummerDesignDay,                        ! Day Type
  0,                                      ! Daylight Saving Time Indicator
  Wetbulb,                                ! Humidity Indicating Type
  ,                                       ! Humidity Indicating Day Schedule Name
  DefaultMultipliers,                     ! Dry-Bulb Temperature Range Modifier Type
  ,                                       ! Dry-Bulb Temperature Range Modifier Schedule Name
  ASHRAETau,                              ! Solar Model Indicator
  ,                                       ! Beam Solar Day Schedule Name
  ,                                       ! Diffuse Solar Day Schedule Name
  0.384,                                  ! ASHRAE Taub {dimensionless}
  2.227;                                  ! ASHRAE Taud {dimensionless}

OS:ComponentData,
  {c5bc033a-b5eb-4eb0-9692-5319cdd72fc3}, ! Handle
  Component Data 1,                       ! Name
  {e470286e-39d1-400a-873e-b727dc5498ba}, ! UUID
  {b22353ab-e74f-4307-a3ea-91ce26c51bc9}, ! Version UUID
  1366305360,                             ! Creation Timestamp
  1366305360,                             ! Version Timestamp
  {1be3333d-af3d-410c-839e-2d48c3a62b11}; ! Name of Object 1

