
OS:Version,
  {e3f07e58-24f1-46b4-b9b2-afe618574484}, ! Handle
  0.9.3;                                  ! Version Identifier

OS:SizingPeriod:DesignDay,
  {e63c680f-4ffd-4c4b-a7a9-5c3e4a310dc6}, ! Handle
  Clinton Sherman Ann Clg 1% Condns DP=>MDB, ! Name
  27.6,                                   ! Maximum Dry-Bulb Temperature {C}
  12.8,                                   ! Daily Dry-Bulb Temperature Range {deltaC}
  22.2,                                   ! Humidity Indicating Conditions at Maximum Dry-Bulb {BasedOnField A3}
  94480,                                  ! Barometric Pressure {Pa}
  6.1,                                    ! Wind Speed {m/s}
  190,                                    ! Wind Direction {deg}
  0,                                      ! Sky Clearness
  0,                                      ! Rain Indicator
  0,                                      ! Snow Indicator
  21,                                     ! Day of Month
  7,                                      ! Month
  SummerDesignDay,                        ! Day Type
  0,                                      ! Daylight Saving Time Indicator
  Dewpoint,                               ! Humidity Indicating Type
  ,                                       ! Humidity Indicating Day Schedule Name
  DefaultMultipliers,                     ! Dry-Bulb Temperature Range Modifier Type
  ,                                       ! Dry-Bulb Temperature Range Modifier Schedule Name
  ASHRAETau,                              ! Solar Model Indicator
  ,                                       ! Beam Solar Day Schedule Name
  ,                                       ! Diffuse Solar Day Schedule Name
  0.405,                                  ! ASHRAE Taub {dimensionless}
  2.264;                                  ! ASHRAE Taud {dimensionless}

OS:ComponentData,
  {1b531ba5-073e-49c6-a6ed-4af2b7d99db3}, ! Handle
  Component Data 1,                       ! Name
  {a8b2f981-546e-4589-a31c-c571e7882489}, ! UUID
  {f2516ddf-47ef-4638-8ff7-01477cdec347}, ! Version UUID
  1366309885,                             ! Creation Timestamp
  1366309885,                             ! Version Timestamp
  {e63c680f-4ffd-4c4b-a7a9-5c3e4a310dc6}; ! Name of Object 1

