
OS:Version,
  {c8874928-b883-4f75-80e3-9ef4a4658739}, ! Handle
  0.9.3;                                  ! Version Identifier

OS:SizingPeriod:DesignDay,
  {e9749b8f-91e5-484d-b51b-354c842ec2ba}, ! Handle
  Cheyenne Municipal Arpt Ann Htg Wind 99% Condns WS=>MCDB, ! Name
  1.1,                                    ! Maximum Dry-Bulb Temperature {C}
  0,                                      ! Daily Dry-Bulb Temperature Range {deltaC}
  1.1,                                    ! Humidity Indicating Conditions at Maximum Dry-Bulb {BasedOnField A3}
  80817,                                  ! Barometric Pressure {Pa}
  16.3,                                   ! Wind Speed {m/s}
  0,                                      ! Wind Direction {deg}
  0,                                      ! Sky Clearness
  0,                                      ! Rain Indicator
  0,                                      ! Snow Indicator
  21,                                     ! Day of Month
  12,                                     ! Month
  WinterDesignDay,                        ! Day Type
  0,                                      ! Daylight Saving Time Indicator
  Wetbulb,                                ! Humidity Indicating Type
  ,                                       ! Humidity Indicating Day Schedule Name
  DefaultMultipliers,                     ! Dry-Bulb Temperature Range Modifier Type
  ,                                       ! Dry-Bulb Temperature Range Modifier Schedule Name
  ASHRAEClearSky;                         ! Solar Model Indicator

OS:ComponentData,
  {08af2aa2-72f3-46b9-8c36-ab2bce1ca0b1}, ! Handle
  Component Data 1,                       ! Name
  {225a9d07-ec8e-4be1-872c-fc8bab82c47f}, ! UUID
  {3941a65f-8178-48c7-9667-161a72ef0ed6}, ! Version UUID
  1366311710,                             ! Creation Timestamp
  1366311710,                             ! Version Timestamp
  {e9749b8f-91e5-484d-b51b-354c842ec2ba}; ! Name of Object 1

