
OS:Version,
  {ada190b4-13ef-43d1-9e17-076a4649b4c2}, ! Handle
  0.9.3;                                  ! Version Identifier

OS:SizingPeriod:DesignDay,
  {0e1a3952-8726-4e81-ace8-e8a5fa1e62ac}, ! Handle
  Ewa/Barbers Point NAS Ann Clg 2% Condns DB=>MWB, ! Name
  31.6,                                   ! Maximum Dry-Bulb Temperature {C}
  8.6,                                    ! Daily Dry-Bulb Temperature Range {deltaC}
  22.7,                                   ! Humidity Indicating Conditions at Maximum Dry-Bulb {BasedOnField A3}
  101145,                                 ! Barometric Pressure {Pa}
  5.1,                                    ! Wind Speed {m/s}
  60,                                     ! Wind Direction {deg}
  0,                                      ! Sky Clearness
  0,                                      ! Rain Indicator
  0,                                      ! Snow Indicator
  21,                                     ! Day of Month
  8,                                      ! Month
  SummerDesignDay,                        ! Day Type
  0,                                      ! Daylight Saving Time Indicator
  Wetbulb,                                ! Humidity Indicating Type
  ,                                       ! Humidity Indicating Day Schedule Name
  DefaultMultipliers,                     ! Dry-Bulb Temperature Range Modifier Type
  ,                                       ! Dry-Bulb Temperature Range Modifier Schedule Name
  ASHRAETau,                              ! Solar Model Indicator
  ,                                       ! Beam Solar Day Schedule Name
  ,                                       ! Diffuse Solar Day Schedule Name
  0.382,                                  ! ASHRAE Taub {dimensionless}
  2.522;                                  ! ASHRAE Taud {dimensionless}

