
OS:Version,
  {038cb254-273e-4906-848b-acbb17dc8959}, ! Handle
  0.9.3;                                  ! Version Identifier

OS:SizingPeriod:DesignDay,
  {a5bb1f92-533f-47c8-918e-68c6bf01a6da}, ! Handle
  Dalhart Municipal Ap Ann Htg Wind 99.6% Condns WS=>MCDB, ! Name
  8.1,                                    ! Maximum Dry-Bulb Temperature {C}
  0,                                      ! Daily Dry-Bulb Temperature Range {deltaC}
  8.1,                                    ! Humidity Indicating Conditions at Maximum Dry-Bulb {BasedOnField A3}
  87545,                                  ! Barometric Pressure {Pa}
  14.8,                                   ! Wind Speed {m/s}
  10,                                     ! Wind Direction {deg}
  0,                                      ! Sky Clearness
  0,                                      ! Rain Indicator
  0,                                      ! Snow Indicator
  21,                                     ! Day of Month
  12,                                     ! Month
  WinterDesignDay,                        ! Day Type
  0,                                      ! Daylight Saving Time Indicator
  Wetbulb,                                ! Humidity Indicating Type
  ,                                       ! Humidity Indicating Day Schedule Name
  DefaultMultipliers,                     ! Dry-Bulb Temperature Range Modifier Type
  ,                                       ! Dry-Bulb Temperature Range Modifier Schedule Name
  ASHRAEClearSky;                         ! Solar Model Indicator

OS:ComponentData,
  {5bdf0f46-4161-4d00-8571-847b93244c64}, ! Handle
  Component Data 1,                       ! Name
  {e7479173-e111-421a-98ce-154d89daa61a}, ! UUID
  {afd7232d-27b8-4df8-a6af-852c3eee9dd4}, ! Version UUID
  1366310649,                             ! Creation Timestamp
  1366310649,                             ! Version Timestamp
  {a5bb1f92-533f-47c8-918e-68c6bf01a6da}; ! Name of Object 1

