
OS:Version,
  {ee984f77-4d5b-45c3-ae42-1a315f6cdd25}, ! Handle
  0.9.3;                                  ! Version Identifier

OS:SizingPeriod:DesignDay,
  {d8f2e36d-791e-4e2d-9e77-21eb032a3c82}, ! Handle
  Houston William P Hobby Ap Ann Htg 99.6% Condns DB, ! Name
  -0.4,                                   ! Maximum Dry-Bulb Temperature {C}
  0,                                      ! Daily Dry-Bulb Temperature Range {deltaC}
  -0.4,                                   ! Humidity Indicating Conditions at Maximum Dry-Bulb {BasedOnField A3}
  101169,                                 ! Barometric Pressure {Pa}
  4.6,                                    ! Wind Speed {m/s}
  0,                                      ! Wind Direction {deg}
  0,                                      ! Sky Clearness
  0,                                      ! Rain Indicator
  0,                                      ! Snow Indicator
  21,                                     ! Day of Month
  1,                                      ! Month
  WinterDesignDay,                        ! Day Type
  0,                                      ! Daylight Saving Time Indicator
  Wetbulb,                                ! Humidity Indicating Type
  ,                                       ! Humidity Indicating Day Schedule Name
  DefaultMultipliers,                     ! Dry-Bulb Temperature Range Modifier Type
  ,                                       ! Dry-Bulb Temperature Range Modifier Schedule Name
  ASHRAEClearSky;                         ! Solar Model Indicator

OS:ComponentData,
  {a546ebf7-bda6-4676-abfa-aeffb60dea7d}, ! Handle
  Component Data 1,                       ! Name
  {598f6aff-3832-44b5-be4a-bd6b5520a439}, ! UUID
  {c0e558f5-21b0-45ed-9dd0-355b4462f41b}, ! Version UUID
  1366310758,                             ! Creation Timestamp
  1366310758,                             ! Version Timestamp
  {d8f2e36d-791e-4e2d-9e77-21eb032a3c82}; ! Name of Object 1

