
OS:Version,
  {2e96e8a1-68ef-4058-bdc2-520460f329fa}, ! Handle
  0.9.3;                                  ! Version Identifier

OS:SizingPeriod:DesignDay,
  {ec214209-19c1-4099-aa90-9d6f25e01411}, ! Handle
  Asheville Ann Clg 2% Condns WB=>MDB,    ! Name
  26.7,                                   ! Maximum Dry-Bulb Temperature {C}
  10.7,                                   ! Daily Dry-Bulb Temperature Range {deltaC}
  22.2,                                   ! Humidity Indicating Conditions at Maximum Dry-Bulb {BasedOnField A3}
  93632,                                  ! Barometric Pressure {Pa}
  3.8,                                    ! Wind Speed {m/s}
  340,                                    ! Wind Direction {deg}
  0,                                      ! Sky Clearness
  0,                                      ! Rain Indicator
  0,                                      ! Snow Indicator
  21,                                     ! Day of Month
  7,                                      ! Month
  SummerDesignDay,                        ! Day Type
  0,                                      ! Daylight Saving Time Indicator
  Wetbulb,                                ! Humidity Indicating Type
  ,                                       ! Humidity Indicating Day Schedule Name
  DefaultMultipliers,                     ! Dry-Bulb Temperature Range Modifier Type
  ,                                       ! Dry-Bulb Temperature Range Modifier Schedule Name
  ASHRAETau,                              ! Solar Model Indicator
  ,                                       ! Beam Solar Day Schedule Name
  ,                                       ! Diffuse Solar Day Schedule Name
  0.517,                                  ! ASHRAE Taub {dimensionless}
  1.849;                                  ! ASHRAE Taud {dimensionless}

OS:ComponentData,
  {1e5767ae-ee3d-4a87-bf2f-f3fdd411a872}, ! Handle
  Component Data 1,                       ! Name
  {664d5cdd-031f-4080-93bc-4fc42d112d65}, ! UUID
  {7e72ad12-fd81-48d7-8e7b-48b2d3eab3ea}, ! Version UUID
  1366308865,                             ! Creation Timestamp
  1366308865,                             ! Version Timestamp
  {ec214209-19c1-4099-aa90-9d6f25e01411}; ! Name of Object 1

