
OS:Version,
  {3104426c-d4f5-44b6-93c2-98ebf04a8b95}, ! Handle
  0.9.3;                                  ! Version Identifier

OS:SizingPeriod:DesignDay,
  {90ea373b-a69f-43b8-bf3e-fecb52c1dfc1}, ! Handle
  Grand Island Ann Clg 2% Condns Enth=>MDB, ! Name
  29.9,                                   ! Maximum Dry-Bulb Temperature {C}
  12.2,                                   ! Daily Dry-Bulb Temperature Range {deltaC}
  72300,                                  ! Humidity Indicating Conditions at Maximum Dry-Bulb {BasedOnField A3}
  94708,                                  ! Barometric Pressure {Pa}
  6.5,                                    ! Wind Speed {m/s}
  180,                                    ! Wind Direction {deg}
  0,                                      ! Sky Clearness
  0,                                      ! Rain Indicator
  0,                                      ! Snow Indicator
  21,                                     ! Day of Month
  7,                                      ! Month
  SummerDesignDay,                        ! Day Type
  0,                                      ! Daylight Saving Time Indicator
  Enthalpy,                               ! Humidity Indicating Type
  ,                                       ! Humidity Indicating Day Schedule Name
  DefaultMultipliers,                     ! Dry-Bulb Temperature Range Modifier Type
  ,                                       ! Dry-Bulb Temperature Range Modifier Schedule Name
  ASHRAETau,                              ! Solar Model Indicator
  ,                                       ! Beam Solar Day Schedule Name
  ,                                       ! Diffuse Solar Day Schedule Name
  0.405,                                  ! ASHRAE Taub {dimensionless}
  2.23;                                   ! ASHRAE Taud {dimensionless}

