
OS:Version,
  {0291463e-c3a9-4129-a0e3-f45c77ecb822}, ! Handle
  0.9.3;                                  ! Version Identifier

OS:SizingPeriod:DesignDay,
  {1f7de47b-47f8-4549-b2cd-0a77c0f4eaba}, ! Handle
  Fort Yukon Ann Clg .4% Condns WB=>MDB,  ! Name
  24.4,                                   ! Maximum Dry-Bulb Temperature {C}
  10.2,                                   ! Daily Dry-Bulb Temperature Range {deltaC}
  16.7,                                   ! Humidity Indicating Conditions at Maximum Dry-Bulb {BasedOnField A3}
  99702,                                  ! Barometric Pressure {Pa}
  2.8,                                    ! Wind Speed {m/s}
  60,                                     ! Wind Direction {deg}
  0,                                      ! Sky Clearness
  0,                                      ! Rain Indicator
  0,                                      ! Snow Indicator
  21,                                     ! Day of Month
  7,                                      ! Month
  SummerDesignDay,                        ! Day Type
  0,                                      ! Daylight Saving Time Indicator
  Wetbulb,                                ! Humidity Indicating Type
  ,                                       ! Humidity Indicating Day Schedule Name
  DefaultMultipliers,                     ! Dry-Bulb Temperature Range Modifier Type
  ,                                       ! Dry-Bulb Temperature Range Modifier Schedule Name
  ASHRAETau,                              ! Solar Model Indicator
  ,                                       ! Beam Solar Day Schedule Name
  ,                                       ! Diffuse Solar Day Schedule Name
  0.412,                                  ! ASHRAE Taub {dimensionless}
  2.049;                                  ! ASHRAE Taud {dimensionless}

OS:ComponentData,
  {b80eda06-690b-4714-872d-cb9799cced63}, ! Handle
  Component Data 1,                       ! Name
  {4970c57a-c693-49a8-bc3d-0165d27dd677}, ! UUID
  {025190ad-83bf-4606-a82b-5e3554071d2f}, ! Version UUID
  1366305272,                             ! Creation Timestamp
  1366305272,                             ! Version Timestamp
  {1f7de47b-47f8-4549-b2cd-0a77c0f4eaba}; ! Name of Object 1

