
OS:Version,
  {c765bf33-6450-458a-88ad-24bed1ee2d0f}, ! Handle
  0.9.3;                                  ! Version Identifier

OS:SizingPeriod:DesignDay,
  {e3566885-042d-4f7d-a7d1-5f7db41b4481}, ! Handle
  Benton Harbor Ross Ann Clg .4% Condns WB=>MDB, ! Name
  30.1,                                   ! Maximum Dry-Bulb Temperature {C}
  10.7,                                   ! Daily Dry-Bulb Temperature Range {deltaC}
  25.2,                                   ! Humidity Indicating Conditions at Maximum Dry-Bulb {BasedOnField A3}
  98992,                                  ! Barometric Pressure {Pa}
  4.9,                                    ! Wind Speed {m/s}
  240,                                    ! Wind Direction {deg}
  0,                                      ! Sky Clearness
  0,                                      ! Rain Indicator
  0,                                      ! Snow Indicator
  21,                                     ! Day of Month
  7,                                      ! Month
  SummerDesignDay,                        ! Day Type
  0,                                      ! Daylight Saving Time Indicator
  Wetbulb,                                ! Humidity Indicating Type
  ,                                       ! Humidity Indicating Day Schedule Name
  DefaultMultipliers,                     ! Dry-Bulb Temperature Range Modifier Type
  ,                                       ! Dry-Bulb Temperature Range Modifier Schedule Name
  ASHRAETau,                              ! Solar Model Indicator
  ,                                       ! Beam Solar Day Schedule Name
  ,                                       ! Diffuse Solar Day Schedule Name
  0.442,                                  ! ASHRAE Taub {dimensionless}
  2.111;                                  ! ASHRAE Taud {dimensionless}

OS:ComponentData,
  {488c4759-2ea2-4dbd-b18c-62284e424d95}, ! Handle
  Component Data 1,                       ! Name
  {f8737976-0307-44cb-a754-36529739d4bb}, ! UUID
  {64b59b5a-3ae1-493f-84b6-26755dac38ae}, ! Version UUID
  1366307957,                             ! Creation Timestamp
  1366307957,                             ! Version Timestamp
  {e3566885-042d-4f7d-a7d1-5f7db41b4481}; ! Name of Object 1

