
OS:Version,
  {d15449f7-9c1e-4c99-9f92-8fbec268332e}, ! Handle
  0.9.3;                                  ! Version Identifier

OS:SizingPeriod:DesignDay,
  {bc8d5963-7ea8-4087-ab6b-3013427b4dac}, ! Handle
  Bethel Ann Clg 1% Condns DP=>MDB,       ! Name
  15.5,                                   ! Maximum Dry-Bulb Temperature {C}
  7.7,                                    ! Daily Dry-Bulb Temperature Range {deltaC}
  12.9,                                   ! Humidity Indicating Conditions at Maximum Dry-Bulb {BasedOnField A3}
  100774,                                 ! Barometric Pressure {Pa}
  4.9,                                    ! Wind Speed {m/s}
  10,                                     ! Wind Direction {deg}
  0,                                      ! Sky Clearness
  0,                                      ! Rain Indicator
  0,                                      ! Snow Indicator
  21,                                     ! Day of Month
  7,                                      ! Month
  SummerDesignDay,                        ! Day Type
  0,                                      ! Daylight Saving Time Indicator
  Dewpoint,                               ! Humidity Indicating Type
  ,                                       ! Humidity Indicating Day Schedule Name
  DefaultMultipliers,                     ! Dry-Bulb Temperature Range Modifier Type
  ,                                       ! Dry-Bulb Temperature Range Modifier Schedule Name
  ASHRAETau,                              ! Solar Model Indicator
  ,                                       ! Beam Solar Day Schedule Name
  ,                                       ! Diffuse Solar Day Schedule Name
  0.383,                                  ! ASHRAE Taub {dimensionless}
  2.185;                                  ! ASHRAE Taud {dimensionless}

OS:ComponentData,
  {a6f92fd3-8647-4b57-93b7-01e0e10b1e4a}, ! Handle
  Component Data 1,                       ! Name
  {df1cf120-7001-48e6-877c-dfac8d5c5587}, ! UUID
  {2a13042a-f73e-4176-b37a-cb559aaf3c86}, ! Version UUID
  1366304753,                             ! Creation Timestamp
  1366304753,                             ! Version Timestamp
  {bc8d5963-7ea8-4087-ab6b-3013427b4dac}; ! Name of Object 1

