
OS:Version,
  {e9c606c6-4f23-4e65-9d4b-d23581af1363}, ! Handle
  0.9.3;                                  ! Version Identifier

OS:SizingPeriod:DesignDay,
  {1522c572-caf9-43e2-9610-12d2e0814612}, ! Handle
  Cape Hatteras Nws Bldg Ann Htg 99% Condns DB, ! Name
  0.1,                                    ! Maximum Dry-Bulb Temperature {C}
  0,                                      ! Daily Dry-Bulb Temperature Range {deltaC}
  0.1,                                    ! Humidity Indicating Conditions at Maximum Dry-Bulb {BasedOnField A3}
  101289,                                 ! Barometric Pressure {Pa}
  3.9,                                    ! Wind Speed {m/s}
  0,                                      ! Wind Direction {deg}
  0,                                      ! Sky Clearness
  0,                                      ! Rain Indicator
  0,                                      ! Snow Indicator
  21,                                     ! Day of Month
  1,                                      ! Month
  WinterDesignDay,                        ! Day Type
  0,                                      ! Daylight Saving Time Indicator
  Wetbulb,                                ! Humidity Indicating Type
  ,                                       ! Humidity Indicating Day Schedule Name
  DefaultMultipliers,                     ! Dry-Bulb Temperature Range Modifier Type
  ,                                       ! Dry-Bulb Temperature Range Modifier Schedule Name
  ASHRAEClearSky;                         ! Solar Model Indicator

OS:ComponentData,
  {9b3f5fc8-3cd2-4698-9d1b-e83a51a6b077}, ! Handle
  Component Data 1,                       ! Name
  {fdcae54a-754e-4708-82d2-1c9665f1683d}, ! UUID
  {b9d6789e-cfd3-48a2-9039-c0f597189201}, ! Version UUID
  1366308879,                             ! Creation Timestamp
  1366308879,                             ! Version Timestamp
  {1522c572-caf9-43e2-9610-12d2e0814612}; ! Name of Object 1

