
OS:Version,
  {a583abc3-7906-4b4e-9334-67c39ff53a9c}, ! Handle
  0.9.3;                                  ! Version Identifier

OS:SizingPeriod:DesignDay,
  {4c3a2bff-86cf-4891-9958-bbbb795973ca}, ! Handle
  Huntington Tri State Arpt Ann Clg .4% Condns WB=>MDB, ! Name
  30.4,                                   ! Maximum Dry-Bulb Temperature {C}
  10.5,                                   ! Daily Dry-Bulb Temperature Range {deltaC}
  25.2,                                   ! Humidity Indicating Conditions at Maximum Dry-Bulb {BasedOnField A3}
  98322,                                  ! Barometric Pressure {Pa}
  3.3,                                    ! Wind Speed {m/s}
  260,                                    ! Wind Direction {deg}
  0,                                      ! Sky Clearness
  0,                                      ! Rain Indicator
  0,                                      ! Snow Indicator
  21,                                     ! Day of Month
  7,                                      ! Month
  SummerDesignDay,                        ! Day Type
  0,                                      ! Daylight Saving Time Indicator
  Wetbulb,                                ! Humidity Indicating Type
  ,                                       ! Humidity Indicating Day Schedule Name
  DefaultMultipliers,                     ! Dry-Bulb Temperature Range Modifier Type
  ,                                       ! Dry-Bulb Temperature Range Modifier Schedule Name
  ASHRAETau,                              ! Solar Model Indicator
  ,                                       ! Beam Solar Day Schedule Name
  ,                                       ! Diffuse Solar Day Schedule Name
  0.512,                                  ! ASHRAE Taub {dimensionless}
  1.865;                                  ! ASHRAE Taud {dimensionless}

OS:ComponentData,
  {f6e1880f-5b39-4f48-bbbd-7d83e449b57d}, ! Handle
  Component Data 1,                       ! Name
  {81ad27f8-0dc6-4b3f-86f4-ddbe83a3cfba}, ! UUID
  {919bca6b-4477-4c61-993c-c57c94bb021c}, ! Version UUID
  1366311652,                             ! Creation Timestamp
  1366311652,                             ! Version Timestamp
  {4c3a2bff-86cf-4891-9958-bbbb795973ca}; ! Name of Object 1

