
OS:Version,
  {c3d1a061-3914-4210-b359-cefb7f435bcb}, ! Handle
  0.9.3;                                  ! Version Identifier

OS:SizingPeriod:DesignDay,
  {7f971db9-523b-4434-a23b-bb739eb6eb6b}, ! Handle
  Atlantic City Intl Ap Ann Clg .4% Condns DP=>MDB, ! Name
  27.7,                                   ! Maximum Dry-Bulb Temperature {C}
  10.2,                                   ! Daily Dry-Bulb Temperature Range {deltaC}
  24,                                     ! Humidity Indicating Conditions at Maximum Dry-Bulb {BasedOnField A3}
  101109,                                 ! Barometric Pressure {Pa}
  5,                                      ! Wind Speed {m/s}
  230,                                    ! Wind Direction {deg}
  0,                                      ! Sky Clearness
  0,                                      ! Rain Indicator
  0,                                      ! Snow Indicator
  21,                                     ! Day of Month
  7,                                      ! Month
  SummerDesignDay,                        ! Day Type
  0,                                      ! Daylight Saving Time Indicator
  Dewpoint,                               ! Humidity Indicating Type
  ,                                       ! Humidity Indicating Day Schedule Name
  DefaultMultipliers,                     ! Dry-Bulb Temperature Range Modifier Type
  ,                                       ! Dry-Bulb Temperature Range Modifier Schedule Name
  ASHRAETau,                              ! Solar Model Indicator
  ,                                       ! Beam Solar Day Schedule Name
  ,                                       ! Diffuse Solar Day Schedule Name
  0.557,                                  ! ASHRAE Taub {dimensionless}
  1.774;                                  ! ASHRAE Taud {dimensionless}

OS:ComponentData,
  {60aca66e-a596-473a-85e7-9f287af2811b}, ! Handle
  Component Data 1,                       ! Name
  {0b48c2ca-71ae-4a3b-9c17-57e330af2e99}, ! UUID
  {be5ecba3-007a-4fc6-a073-8441becd58fc}, ! Version UUID
  1366309290,                             ! Creation Timestamp
  1366309290,                             ! Version Timestamp
  {7f971db9-523b-4434-a23b-bb739eb6eb6b}; ! Name of Object 1

