
OS:Version,
  {77ef5987-cdc0-4835-9732-9f4b3a5a90c6}, ! Handle
  0.9.3;                                  ! Version Identifier

OS:SizingPeriod:DesignDay,
  {3649d207-73d0-4b41-a02e-ae878e2331b1}, ! Handle
  DAGGETT Ann Hum_n 99% Condns DP=>MCDB,  ! Name
  7.8,                                    ! Maximum Dry-Bulb Temperature {C}
  0,                                      ! Daily Dry-Bulb Temperature Range {deltaC}
  -15.9,                                  ! Humidity Indicating Conditions at Maximum Dry-Bulb {BasedOnField A3}
  94458,                                  ! Barometric Pressure {Pa}
  2.8,                                    ! Wind Speed {m/s}
  280,                                    ! Wind Direction {deg}
  0,                                      ! Sky Clearness
  0,                                      ! Rain Indicator
  0,                                      ! Snow Indicator
  21,                                     ! Day of Month
  12,                                     ! Month
  WinterDesignDay,                        ! Day Type
  0,                                      ! Daylight Saving Time Indicator
  Dewpoint,                               ! Humidity Indicating Type
  ,                                       ! Humidity Indicating Day Schedule Name
  DefaultMultipliers,                     ! Dry-Bulb Temperature Range Modifier Type
  ,                                       ! Dry-Bulb Temperature Range Modifier Schedule Name
  ASHRAEClearSky;                         ! Solar Model Indicator

OS:ComponentData,
  {c326d62f-3d11-4007-aec0-90a38f673aaf}, ! Handle
  Component Data 1,                       ! Name
  {6c12f55c-d61d-4904-8a7e-017da12e7029}, ! UUID
  {62d965a1-ca92-49d4-9862-9e4f758e58ca}, ! Version UUID
  1366306371,                             ! Creation Timestamp
  1366306371,                             ! Version Timestamp
  {3649d207-73d0-4b41-a02e-ae878e2331b1}; ! Name of Object 1

