
OS:Version,
  {6b8806cc-8152-49cb-9b39-88e22dae8df8}, ! Handle
  0.9.3;                                  ! Version Identifier

OS:SizingPeriod:DesignDay,
  {8f4b98a0-c091-4cd1-81a6-294f127fc6b0}, ! Handle
  COLUMBIA Ann Clg 2% Condns WB=>MDB,     ! Name
  30.7,                                   ! Maximum Dry-Bulb Temperature {C}
  11.1,                                   ! Daily Dry-Bulb Temperature Range {deltaC}
  24.9,                                   ! Humidity Indicating Conditions at Maximum Dry-Bulb {BasedOnField A3}
  100499,                                 ! Barometric Pressure {Pa}
  3.9,                                    ! Wind Speed {m/s}
  240,                                    ! Wind Direction {deg}
  0,                                      ! Sky Clearness
  0,                                      ! Rain Indicator
  0,                                      ! Snow Indicator
  21,                                     ! Day of Month
  7,                                      ! Month
  SummerDesignDay,                        ! Day Type
  0,                                      ! Daylight Saving Time Indicator
  Wetbulb,                                ! Humidity Indicating Type
  ,                                       ! Humidity Indicating Day Schedule Name
  DefaultMultipliers,                     ! Dry-Bulb Temperature Range Modifier Type
  ,                                       ! Dry-Bulb Temperature Range Modifier Schedule Name
  ASHRAETau,                              ! Solar Model Indicator
  ,                                       ! Beam Solar Day Schedule Name
  ,                                       ! Diffuse Solar Day Schedule Name
  0.566,                                  ! ASHRAE Taub {dimensionless}
  1.764;                                  ! ASHRAE Taud {dimensionless}

OS:ComponentData,
  {34d00c70-b8ad-4191-8cee-9cbce2ca9821}, ! Handle
  Component Data 1,                       ! Name
  {a339ab4f-8444-4503-91f4-980fdb1f92aa}, ! UUID
  {af6be83f-42bd-41ca-be92-ff924a878279}, ! Version UUID
  1366310337,                             ! Creation Timestamp
  1366310337,                             ! Version Timestamp
  {8f4b98a0-c091-4cd1-81a6-294f127fc6b0}; ! Name of Object 1

