
OS:Version,
  {6f149ffe-b1b5-4abe-a8e5-46f36bdb4284}, ! Handle
  0.9.3;                                  ! Version Identifier

OS:SizingPeriod:DesignDay,
  {4e02cdd5-5e4b-4d0c-92a1-1eb5aeba075c}, ! Handle
  Bettles Field Ann Clg 2% Condns WB=>MDB, ! Name
  20.8,                                   ! Maximum Dry-Bulb Temperature {C}
  10.6,                                   ! Daily Dry-Bulb Temperature Range {deltaC}
  15,                                     ! Humidity Indicating Conditions at Maximum Dry-Bulb {BasedOnField A3}
  98992,                                  ! Barometric Pressure {Pa}
  3.3,                                    ! Wind Speed {m/s}
  220,                                    ! Wind Direction {deg}
  0,                                      ! Sky Clearness
  0,                                      ! Rain Indicator
  0,                                      ! Snow Indicator
  21,                                     ! Day of Month
  7,                                      ! Month
  SummerDesignDay,                        ! Day Type
  0,                                      ! Daylight Saving Time Indicator
  Wetbulb,                                ! Humidity Indicating Type
  ,                                       ! Humidity Indicating Day Schedule Name
  DefaultMultipliers,                     ! Dry-Bulb Temperature Range Modifier Type
  ,                                       ! Dry-Bulb Temperature Range Modifier Schedule Name
  ASHRAETau,                              ! Solar Model Indicator
  ,                                       ! Beam Solar Day Schedule Name
  ,                                       ! Diffuse Solar Day Schedule Name
  0.389,                                  ! ASHRAE Taub {dimensionless}
  2.131;                                  ! ASHRAE Taud {dimensionless}

OS:ComponentData,
  {7802e08f-6c21-4d5c-8229-3ddd8d564ed3}, ! Handle
  Component Data 1,                       ! Name
  {cdb917fa-9e1e-4a6b-bcb8-ea047a7d4150}, ! UUID
  {eaeaa75e-ce3b-4212-ad8e-f8bf5a8dc57a}, ! Version UUID
  1366304768,                             ! Creation Timestamp
  1366304768,                             ! Version Timestamp
  {4e02cdd5-5e4b-4d0c-92a1-1eb5aeba075c}; ! Name of Object 1

