
OS:Version,
  {b7e0cba0-2476-4ef7-906b-f7c5a9a448d7}, ! Handle
  0.9.3;                                  ! Version Identifier

OS:SizingPeriod:DesignDay,
  {d6a652bb-c168-4982-84fd-86fc84ee3a85}, ! Handle
  KING_SALMON Ann Hum_n 99% Condns DP=>MCDB, ! Name
  -27,                                    ! Maximum Dry-Bulb Temperature {C}
  0,                                      ! Daily Dry-Bulb Temperature Range {deltaC}
  -30.7,                                  ! Humidity Indicating Conditions at Maximum Dry-Bulb {BasedOnField A3}
  101145,                                 ! Barometric Pressure {Pa}
  2.4,                                    ! Wind Speed {m/s}
  10,                                     ! Wind Direction {deg}
  0,                                      ! Sky Clearness
  0,                                      ! Rain Indicator
  0,                                      ! Snow Indicator
  21,                                     ! Day of Month
  1,                                      ! Month
  WinterDesignDay,                        ! Day Type
  0,                                      ! Daylight Saving Time Indicator
  Dewpoint,                               ! Humidity Indicating Type
  ,                                       ! Humidity Indicating Day Schedule Name
  DefaultMultipliers,                     ! Dry-Bulb Temperature Range Modifier Type
  ,                                       ! Dry-Bulb Temperature Range Modifier Schedule Name
  ASHRAEClearSky;                         ! Solar Model Indicator

OS:ComponentData,
  {5ce244a2-7338-428a-9758-9f70c260e92c}, ! Handle
  Component Data 1,                       ! Name
  {e84d551e-a16d-454b-99b4-a051ba8b28dc}, ! UUID
  {d0e1eb44-cc90-4cc4-9f8e-22c3ef3e1fed}, ! Version UUID
  1366305358,                             ! Creation Timestamp
  1366305358,                             ! Version Timestamp
  {d6a652bb-c168-4982-84fd-86fc84ee3a85}; ! Name of Object 1

