
OS:Version,
  {f2ebfdde-4d03-4bc2-a2bb-446da602681a}, ! Handle
  0.9.3;                                  ! Version Identifier

OS:SizingPeriod:DesignDay,
  {5581256f-c81a-4269-9fd9-b7c3027a356a}, ! Handle
  Astoria Ann Htg 99.6% Condns DB,        ! Name
  -2.9,                                   ! Maximum Dry-Bulb Temperature {C}
  0,                                      ! Daily Dry-Bulb Temperature Range {deltaC}
  -2.9,                                   ! Humidity Indicating Conditions at Maximum Dry-Bulb {BasedOnField A3}
  101241,                                 ! Barometric Pressure {Pa}
  3.4,                                    ! Wind Speed {m/s}
  90,                                     ! Wind Direction {deg}
  0,                                      ! Sky Clearness
  0,                                      ! Rain Indicator
  0,                                      ! Snow Indicator
  21,                                     ! Day of Month
  12,                                     ! Month
  WinterDesignDay,                        ! Day Type
  0,                                      ! Daylight Saving Time Indicator
  Wetbulb,                                ! Humidity Indicating Type
  ,                                       ! Humidity Indicating Day Schedule Name
  DefaultMultipliers,                     ! Dry-Bulb Temperature Range Modifier Type
  ,                                       ! Dry-Bulb Temperature Range Modifier Schedule Name
  ASHRAEClearSky;                         ! Solar Model Indicator

OS:ComponentData,
  {12a72720-461c-43d8-84ab-3383e8aa3794}, ! Handle
  Component Data 1,                       ! Name
  {96f00f7f-7920-47e5-a8d4-dd558fb86681}, ! UUID
  {63384420-1cc8-497e-9bac-c3c41cb180c5}, ! Version UUID
  1366309970,                             ! Creation Timestamp
  1366309970,                             ! Version Timestamp
  {5581256f-c81a-4269-9fd9-b7c3027a356a}; ! Name of Object 1

