
OS:Version,
  {64a4426d-3410-42b2-953d-0f4459d42937}, ! Handle
  0.9.3;                                  ! Version Identifier

OS:SizingPeriod:DesignDay,
  {914d17a2-f8a0-4ee0-ad35-e43a6926fa3c}, ! Handle
  Camp Pendleton Mcas Ann Clg .4% Condns DB=>MWB, ! Name
  33.3,                                   ! Maximum Dry-Bulb Temperature {C}
  11.1,                                   ! Daily Dry-Bulb Temperature Range {deltaC}
  19.4,                                   ! Humidity Indicating Conditions at Maximum Dry-Bulb {BasedOnField A3}
  101049,                                 ! Barometric Pressure {Pa}
  4.2,                                    ! Wind Speed {m/s}
  210,                                    ! Wind Direction {deg}
  0,                                      ! Sky Clearness
  0,                                      ! Rain Indicator
  0,                                      ! Snow Indicator
  21,                                     ! Day of Month
  8,                                      ! Month
  SummerDesignDay,                        ! Day Type
  0,                                      ! Daylight Saving Time Indicator
  Wetbulb,                                ! Humidity Indicating Type
  ,                                       ! Humidity Indicating Day Schedule Name
  DefaultMultipliers,                     ! Dry-Bulb Temperature Range Modifier Type
  ,                                       ! Dry-Bulb Temperature Range Modifier Schedule Name
  ASHRAETau,                              ! Solar Model Indicator
  ,                                       ! Beam Solar Day Schedule Name
  ,                                       ! Diffuse Solar Day Schedule Name
  0.432,                                  ! ASHRAE Taub {dimensionless}
  2.16;                                   ! ASHRAE Taud {dimensionless}

OS:ComponentData,
  {2f260ca5-674a-4212-b44f-68ba453e6d33}, ! Handle
  Component Data 1,                       ! Name
  {3a9b3a76-79e7-4321-89a2-1d0983185ac8}, ! UUID
  {8c3bc2d6-203e-4260-9743-1bb853b38c6c}, ! Version UUID
  1366306399,                             ! Creation Timestamp
  1366306399,                             ! Version Timestamp
  {914d17a2-f8a0-4ee0-ad35-e43a6926fa3c}; ! Name of Object 1

