
OS:Version,
  {eae4daad-c09b-4251-8c8e-57321b579c40}, ! Handle
  0.9.3;                                  ! Version Identifier

OS:SizingPeriod:DesignDay,
  {d93c10c3-5ba5-46b2-98ba-6ffa944f9763}, ! Handle
  JACKSONVILLE Ann Clg .4% Condns DB=>MWB, ! Name
  34.7,                                   ! Maximum Dry-Bulb Temperature {C}
  10,                                     ! Daily Dry-Bulb Temperature Range {deltaC}
  25.2,                                   ! Humidity Indicating Conditions at Maximum Dry-Bulb {BasedOnField A3}
  101217,                                 ! Barometric Pressure {Pa}
  3.6,                                    ! Wind Speed {m/s}
  260,                                    ! Wind Direction {deg}
  0,                                      ! Sky Clearness
  0,                                      ! Rain Indicator
  0,                                      ! Snow Indicator
  21,                                     ! Day of Month
  7,                                      ! Month
  SummerDesignDay,                        ! Day Type
  0,                                      ! Daylight Saving Time Indicator
  Wetbulb,                                ! Humidity Indicating Type
  ,                                       ! Humidity Indicating Day Schedule Name
  DefaultMultipliers,                     ! Dry-Bulb Temperature Range Modifier Type
  ,                                       ! Dry-Bulb Temperature Range Modifier Schedule Name
  ASHRAETau,                              ! Solar Model Indicator
  ,                                       ! Beam Solar Day Schedule Name
  ,                                       ! Diffuse Solar Day Schedule Name
  0.541,                                  ! ASHRAE Taub {dimensionless}
  1.863;                                  ! ASHRAE Taud {dimensionless}

OS:ComponentData,
  {a818585b-87b3-43ed-b5ec-5ec4b376cb77}, ! Handle
  Component Data 1,                       ! Name
  {04e4bd27-edc0-410a-97e2-c55a7157150a}, ! UUID
  {cef9e09d-e6b6-4fca-8fea-630b42975788}, ! Version UUID
  1366306817,                             ! Creation Timestamp
  1366306817,                             ! Version Timestamp
  {d93c10c3-5ba5-46b2-98ba-6ffa944f9763}; ! Name of Object 1

