
OS:Version,
  {6996e044-879a-4001-8748-8185271f27e1}, ! Handle
  0.9.3;                                  ! Version Identifier

OS:SizingPeriod:DesignDay,
  {9f77ca32-ca7f-4f25-a942-a4bf36de4779}, ! Handle
  Chula Vista Brown Field Naas Ann Clg 1% Condns WB=>MDB, ! Name
  26.2,                                   ! Maximum Dry-Bulb Temperature {C}
  8.9,                                    ! Daily Dry-Bulb Temperature Range {deltaC}
  20.9,                                   ! Humidity Indicating Conditions at Maximum Dry-Bulb {BasedOnField A3}
  99429,                                  ! Barometric Pressure {Pa}
  4.1,                                    ! Wind Speed {m/s}
  280,                                    ! Wind Direction {deg}
  0,                                      ! Sky Clearness
  0,                                      ! Rain Indicator
  0,                                      ! Snow Indicator
  21,                                     ! Day of Month
  8,                                      ! Month
  SummerDesignDay,                        ! Day Type
  0,                                      ! Daylight Saving Time Indicator
  Wetbulb,                                ! Humidity Indicating Type
  ,                                       ! Humidity Indicating Day Schedule Name
  DefaultMultipliers,                     ! Dry-Bulb Temperature Range Modifier Type
  ,                                       ! Dry-Bulb Temperature Range Modifier Schedule Name
  ASHRAETau,                              ! Solar Model Indicator
  ,                                       ! Beam Solar Day Schedule Name
  ,                                       ! Diffuse Solar Day Schedule Name
  0.412,                                  ! ASHRAE Taub {dimensionless}
  2.276;                                  ! ASHRAE Taud {dimensionless}

OS:ComponentData,
  {4640ca42-35b6-4484-a2f4-ae91441d4a55}, ! Handle
  Component Data 1,                       ! Name
  {859cad1e-d0af-40ad-ae31-6c3e7c95d222}, ! UUID
  {b7f8a1d2-11a4-4438-b49e-8e947ceb8b81}, ! Version UUID
  1366306414,                             ! Creation Timestamp
  1366306414,                             ! Version Timestamp
  {9f77ca32-ca7f-4f25-a942-a4bf36de4779}; ! Name of Object 1

