
OS:Version,
  {85407f43-8058-4b4b-8151-987d5d4fddc7}, ! Handle
  0.9.3;                                  ! Version Identifier

OS:SizingPeriod:DesignDay,
  {17b5359c-d687-4ad2-b2d0-97c425ae7abb}, ! Handle
  ALBANY Ann Htg 99% Condns DB,           ! Name
  -16.2,                                  ! Maximum Dry-Bulb Temperature {C}
  0,                                      ! Daily Dry-Bulb Temperature Range {deltaC}
  -16.2,                                  ! Humidity Indicating Conditions at Maximum Dry-Bulb {BasedOnField A3}
  100260,                                 ! Barometric Pressure {Pa}
  2.7,                                    ! Wind Speed {m/s}
  300,                                    ! Wind Direction {deg}
  0,                                      ! Sky Clearness
  0,                                      ! Rain Indicator
  0,                                      ! Snow Indicator
  21,                                     ! Day of Month
  1,                                      ! Month
  WinterDesignDay,                        ! Day Type
  0,                                      ! Daylight Saving Time Indicator
  Wetbulb,                                ! Humidity Indicating Type
  ,                                       ! Humidity Indicating Day Schedule Name
  DefaultMultipliers,                     ! Dry-Bulb Temperature Range Modifier Type
  ,                                       ! Dry-Bulb Temperature Range Modifier Schedule Name
  ASHRAEClearSky;                         ! Solar Model Indicator

OS:ComponentData,
  {d2b69c1e-3872-4ef4-9d01-b1de84a62cdb}, ! Handle
  Component Data 1,                       ! Name
  {ba8fdb2d-eb83-442d-be6a-99b4fcb77cdb}, ! UUID
  {2d81e81a-c8fe-4c76-99a5-234f89797646}, ! Version UUID
  1366309573,                             ! Creation Timestamp
  1366309573,                             ! Version Timestamp
  {17b5359c-d687-4ad2-b2d0-97c425ae7abb}; ! Name of Object 1

