
OS:Version,
  {62f07279-a5a1-45aa-86a1-3fa5d3306eca}, ! Handle
  0.9.3;                                  ! Version Identifier

OS:SizingPeriod:DesignDay,
  {21dcae4a-fcba-4ebd-ad07-acb7b2f89806}, ! Handle
  Fort Lauderdale Hollywood Int Ann Clg 2% Condns DB=>MWB, ! Name
  32.1,                                   ! Maximum Dry-Bulb Temperature {C}
  6.1,                                    ! Daily Dry-Bulb Temperature Range {deltaC}
  25.7,                                   ! Humidity Indicating Conditions at Maximum Dry-Bulb {BasedOnField A3}
  101289,                                 ! Barometric Pressure {Pa}
  4.8,                                    ! Wind Speed {m/s}
  140,                                    ! Wind Direction {deg}
  0,                                      ! Sky Clearness
  0,                                      ! Rain Indicator
  0,                                      ! Snow Indicator
  21,                                     ! Day of Month
  7,                                      ! Month
  SummerDesignDay,                        ! Day Type
  0,                                      ! Daylight Saving Time Indicator
  Wetbulb,                                ! Humidity Indicating Type
  ,                                       ! Humidity Indicating Day Schedule Name
  DefaultMultipliers,                     ! Dry-Bulb Temperature Range Modifier Type
  ,                                       ! Dry-Bulb Temperature Range Modifier Schedule Name
  ASHRAETau,                              ! Solar Model Indicator
  ,                                       ! Beam Solar Day Schedule Name
  ,                                       ! Diffuse Solar Day Schedule Name
  0.518,                                  ! ASHRAE Taub {dimensionless}
  1.938;                                  ! ASHRAE Taud {dimensionless}

OS:ComponentData,
  {4b77e938-749d-4746-912c-745b7514d4f0}, ! Handle
  Component Data 1,                       ! Name
  {b674bfeb-7c24-4454-a99c-2ce6b5c80f49}, ! UUID
  {89a4e4ca-6a6f-41cb-bfa0-2fd39d4eff4e}, ! Version UUID
  1366306797,                             ! Creation Timestamp
  1366306797,                             ! Version Timestamp
  {21dcae4a-fcba-4ebd-ad07-acb7b2f89806}; ! Name of Object 1

