
OS:Version,
  {35da5686-833a-439b-b39e-7567982fcdf6}, ! Handle
  0.9.3;                                  ! Version Identifier

OS:SizingPeriod:DesignDay,
  {6b4a7591-c035-4a18-9822-30d6662e2c33}, ! Handle
  College Station Easterwood Fl Ann Clg .4% Condns DB=>MWB, ! Name
  37.3,                                   ! Maximum Dry-Bulb Temperature {C}
  11.8,                                   ! Daily Dry-Bulb Temperature Range {deltaC}
  24.5,                                   ! Humidity Indicating Conditions at Maximum Dry-Bulb {BasedOnField A3}
  100177,                                 ! Barometric Pressure {Pa}
  3.7,                                    ! Wind Speed {m/s}
  170,                                    ! Wind Direction {deg}
  0,                                      ! Sky Clearness
  0,                                      ! Rain Indicator
  0,                                      ! Snow Indicator
  21,                                     ! Day of Month
  8,                                      ! Month
  SummerDesignDay,                        ! Day Type
  0,                                      ! Daylight Saving Time Indicator
  Wetbulb,                                ! Humidity Indicating Type
  ,                                       ! Humidity Indicating Day Schedule Name
  DefaultMultipliers,                     ! Dry-Bulb Temperature Range Modifier Type
  ,                                       ! Dry-Bulb Temperature Range Modifier Schedule Name
  ASHRAETau,                              ! Solar Model Indicator
  ,                                       ! Beam Solar Day Schedule Name
  ,                                       ! Diffuse Solar Day Schedule Name
  0.479,                                  ! ASHRAE Taub {dimensionless}
  2.029;                                  ! ASHRAE Taud {dimensionless}

OS:ComponentData,
  {8494d760-2108-4234-924d-f1ccc9c05552}, ! Handle
  Component Data 1,                       ! Name
  {d7bc49a0-3425-416b-938b-0d100275c6fd}, ! UUID
  {2c4d97a1-74e0-4251-aba1-a80fdefefab4}, ! Version UUID
  1366310618,                             ! Creation Timestamp
  1366310618,                             ! Version Timestamp
  {6b4a7591-c035-4a18-9822-30d6662e2c33}; ! Name of Object 1

