
OS:Version,
  {cb153f06-159e-42d8-ad31-90c37b5d0c01}, ! Handle
  0.9.3;                                  ! Version Identifier

OS:SizingPeriod:DesignDay,
  {c8b09067-31b7-404d-8ebf-c49a4671aba6}, ! Handle
  Glenwood  Asos Ann Htg Wind 99.6% Condns WS=>MCDB, ! Name
  -9.4,                                   ! Maximum Dry-Bulb Temperature {C}
  0,                                      ! Daily Dry-Bulb Temperature Range {deltaC}
  -9.4,                                   ! Humidity Indicating Conditions at Maximum Dry-Bulb {BasedOnField A3}
  96322,                                  ! Barometric Pressure {Pa}
  14.6,                                   ! Wind Speed {m/s}
  260,                                    ! Wind Direction {deg}
  0,                                      ! Sky Clearness
  0,                                      ! Rain Indicator
  0,                                      ! Snow Indicator
  21,                                     ! Day of Month
  1,                                      ! Month
  WinterDesignDay,                        ! Day Type
  0,                                      ! Daylight Saving Time Indicator
  Wetbulb,                                ! Humidity Indicating Type
  ,                                       ! Humidity Indicating Day Schedule Name
  DefaultMultipliers,                     ! Dry-Bulb Temperature Range Modifier Type
  ,                                       ! Dry-Bulb Temperature Range Modifier Schedule Name
  ASHRAEClearSky;                         ! Solar Model Indicator

OS:ComponentData,
  {4ca1a76d-16da-43b9-944e-7f7096549949}, ! Handle
  Component Data 1,                       ! Name
  {16c17e22-ed42-445e-8d92-464b22fe75fe}, ! UUID
  {455e1dd0-b2e1-49ab-b121-7f75b4a91a6a}, ! Version UUID
  1366308241,                             ! Creation Timestamp
  1366308241,                             ! Version Timestamp
  {c8b09067-31b7-404d-8ebf-c49a4671aba6}; ! Name of Object 1

