
OS:Version,
  {ddb92588-71c1-4364-8f67-1ca5261d167d}, ! Handle
  0.9.3;                                  ! Version Identifier

OS:SizingPeriod:DesignDay,
  {c3869c41-e5a8-4f24-aeb8-53796337161b}, ! Handle
  Huntington Tri State Arpt Ann Clg 2% Condns DP=>MDB, ! Name
  26.2,                                   ! Maximum Dry-Bulb Temperature {C}
  10.5,                                   ! Daily Dry-Bulb Temperature Range {deltaC}
  22.3,                                   ! Humidity Indicating Conditions at Maximum Dry-Bulb {BasedOnField A3}
  98322,                                  ! Barometric Pressure {Pa}
  3.3,                                    ! Wind Speed {m/s}
  260,                                    ! Wind Direction {deg}
  0,                                      ! Sky Clearness
  0,                                      ! Rain Indicator
  0,                                      ! Snow Indicator
  21,                                     ! Day of Month
  7,                                      ! Month
  SummerDesignDay,                        ! Day Type
  0,                                      ! Daylight Saving Time Indicator
  Dewpoint,                               ! Humidity Indicating Type
  ,                                       ! Humidity Indicating Day Schedule Name
  DefaultMultipliers,                     ! Dry-Bulb Temperature Range Modifier Type
  ,                                       ! Dry-Bulb Temperature Range Modifier Schedule Name
  ASHRAETau,                              ! Solar Model Indicator
  ,                                       ! Beam Solar Day Schedule Name
  ,                                       ! Diffuse Solar Day Schedule Name
  0.512,                                  ! ASHRAE Taub {dimensionless}
  1.865;                                  ! ASHRAE Taud {dimensionless}

OS:ComponentData,
  {55c41cd7-3438-4668-85dd-6d802515a4f6}, ! Handle
  Component Data 1,                       ! Name
  {2ad5ef7c-9256-4d80-9ede-abc658915089}, ! UUID
  {31553f43-0358-4b27-a70b-7e49a5a3ffee}, ! Version UUID
  1366311653,                             ! Creation Timestamp
  1366311653,                             ! Version Timestamp
  {c3869c41-e5a8-4f24-aeb8-53796337161b}; ! Name of Object 1

