
OS:Version,
  {fca389fb-3583-4ca3-9a83-17acbcbd4cec}, ! Handle
  0.9.3;                                  ! Version Identifier

OS:SizingPeriod:DesignDay,
  {7a84aacc-b354-4e25-a00a-6e7e0dd983ea}, ! Handle
  Chippewa Co Intl Ann Clg 2% Condns WB=>MDB, ! Name
  23.5,                                   ! Maximum Dry-Bulb Temperature {C}
  10.6,                                   ! Daily Dry-Bulb Temperature Range {deltaC}
  19.6,                                   ! Humidity Indicating Conditions at Maximum Dry-Bulb {BasedOnField A3}
  98358,                                  ! Barometric Pressure {Pa}
  4.1,                                    ! Wind Speed {m/s}
  240,                                    ! Wind Direction {deg}
  0,                                      ! Sky Clearness
  0,                                      ! Rain Indicator
  0,                                      ! Snow Indicator
  21,                                     ! Day of Month
  7,                                      ! Month
  SummerDesignDay,                        ! Day Type
  0,                                      ! Daylight Saving Time Indicator
  Wetbulb,                                ! Humidity Indicating Type
  ,                                       ! Humidity Indicating Day Schedule Name
  DefaultMultipliers,                     ! Dry-Bulb Temperature Range Modifier Type
  ,                                       ! Dry-Bulb Temperature Range Modifier Schedule Name
  ASHRAETau,                              ! Solar Model Indicator
  ,                                       ! Beam Solar Day Schedule Name
  ,                                       ! Diffuse Solar Day Schedule Name
  0.41,                                   ! ASHRAE Taub {dimensionless}
  2.2;                                    ! ASHRAE Taud {dimensionless}

OS:ComponentData,
  {203d638d-f2b9-4eb9-87a8-4bd5cb043fdd}, ! Handle
  Component Data 1,                       ! Name
  {60b5c912-47b1-432b-ab9c-2f3dd709eb03}, ! UUID
  {630194d4-5d67-4a1c-b13c-df0d5bc92e14}, ! Version UUID
  1366307968,                             ! Creation Timestamp
  1366307968,                             ! Version Timestamp
  {7a84aacc-b354-4e25-a00a-6e7e0dd983ea}; ! Name of Object 1

