
OS:Version,
  {e9630eea-c56c-41c3-96fd-da4f796c27d2}, ! Handle
  0.9.3;                                  ! Version Identifier

OS:SizingPeriod:DesignDay,
  {b0878a50-985b-4f0c-95f3-aa34c2d654a2}, ! Handle
  Grand Island Ann Htg 99.6% Condns DB,   ! Name
  -21.2,                                  ! Maximum Dry-Bulb Temperature {C}
  0,                                      ! Daily Dry-Bulb Temperature Range {deltaC}
  -21.2,                                  ! Humidity Indicating Conditions at Maximum Dry-Bulb {BasedOnField A3}
  94708,                                  ! Barometric Pressure {Pa}
  4.7,                                    ! Wind Speed {m/s}
  0,                                      ! Wind Direction {deg}
  0,                                      ! Sky Clearness
  0,                                      ! Rain Indicator
  0,                                      ! Snow Indicator
  21,                                     ! Day of Month
  1,                                      ! Month
  WinterDesignDay,                        ! Day Type
  0,                                      ! Daylight Saving Time Indicator
  Wetbulb,                                ! Humidity Indicating Type
  ,                                       ! Humidity Indicating Day Schedule Name
  DefaultMultipliers,                     ! Dry-Bulb Temperature Range Modifier Type
  ,                                       ! Dry-Bulb Temperature Range Modifier Schedule Name
  ASHRAEClearSky;                         ! Solar Model Indicator

OS:ComponentData,
  {0249179e-123a-49e5-bcfd-b4d41426e13e}, ! Handle
  Component Data 1,                       ! Name
  {bc180fc9-efee-4841-9474-78061c50b639}, ! UUID
  {db9c351b-4260-43e3-92d4-2766ec84b0b0}, ! Version UUID
  1366309107,                             ! Creation Timestamp
  1366309107,                             ! Version Timestamp
  {b0878a50-985b-4f0c-95f3-aa34c2d654a2}; ! Name of Object 1

