
OS:Version,
  {1a67c556-15e1-4dbe-b882-64ce4c99739a}, ! Handle
  0.9.3;                                  ! Version Identifier

OS:SizingPeriod:DesignDay,
  {c6cac829-cf42-48f8-accb-1aca61295963}, ! Handle
  Cape Hatteras Ann Clg 1% Condns Enth=>MDB, ! Name
  28.3,                                   ! Maximum Dry-Bulb Temperature {C}
  4.4,                                    ! Daily Dry-Bulb Temperature Range {deltaC}
  82000,                                  ! Humidity Indicating Conditions at Maximum Dry-Bulb {BasedOnField A3}
  101289,                                 ! Barometric Pressure {Pa}
  4.4,                                    ! Wind Speed {m/s}
  0,                                      ! Wind Direction {deg}
  0,                                      ! Sky Clearness
  0,                                      ! Rain Indicator
  0,                                      ! Snow Indicator
  21,                                     ! Day of Month
  7,                                      ! Month
  SummerDesignDay,                        ! Day Type
  0,                                      ! Daylight Saving Time Indicator
  Enthalpy,                               ! Humidity Indicating Type
  ,                                       ! Humidity Indicating Day Schedule Name
  DefaultMultipliers,                     ! Dry-Bulb Temperature Range Modifier Type
  ,                                       ! Dry-Bulb Temperature Range Modifier Schedule Name
  ASHRAETau,                              ! Solar Model Indicator
  ,                                       ! Beam Solar Day Schedule Name
  ,                                       ! Diffuse Solar Day Schedule Name
  0.57,                                   ! ASHRAE Taub {dimensionless}
  1.801;                                  ! ASHRAE Taud {dimensionless}

OS:ComponentData,
  {87e7f009-bfa6-4a1e-9802-d2e5068f43b6}, ! Handle
  Component Data 1,                       ! Name
  {d9089cf4-2b92-4839-997d-336f048a3a14}, ! UUID
  {0b907939-8334-475a-b7d8-c21d465ed5a9}, ! Version UUID
  1366308874,                             ! Creation Timestamp
  1366308874,                             ! Version Timestamp
  {c6cac829-cf42-48f8-accb-1aca61295963}; ! Name of Object 1

