
OS:Version,
  {2525f9c2-ac20-4e60-bfff-e6951890b3aa}, ! Handle
  0.9.3;                                  ! Version Identifier

OS:SizingPeriod:DesignDay,
  {b3215cc7-fb4c-4970-a8ed-adccae1707fb}, ! Handle
  Charles City Ann Htg 99.6% Condns DB,   ! Name
  -22.2,                                  ! Maximum Dry-Bulb Temperature {C}
  0,                                      ! Daily Dry-Bulb Temperature Range {deltaC}
  -22.2,                                  ! Humidity Indicating Conditions at Maximum Dry-Bulb {BasedOnField A3}
  97272,                                  ! Barometric Pressure {Pa}
  3.8,                                    ! Wind Speed {m/s}
  310,                                    ! Wind Direction {deg}
  0,                                      ! Sky Clearness
  0,                                      ! Rain Indicator
  0,                                      ! Snow Indicator
  21,                                     ! Day of Month
  1,                                      ! Month
  WinterDesignDay,                        ! Day Type
  0,                                      ! Daylight Saving Time Indicator
  Wetbulb,                                ! Humidity Indicating Type
  ,                                       ! Humidity Indicating Day Schedule Name
  DefaultMultipliers,                     ! Dry-Bulb Temperature Range Modifier Type
  ,                                       ! Dry-Bulb Temperature Range Modifier Schedule Name
  ASHRAEClearSky;                         ! Solar Model Indicator

OS:ComponentData,
  {987224dd-4527-41ee-93d7-8cfef8944131}, ! Handle
  Component Data 1,                       ! Name
  {92ef5931-5587-4138-8973-868bb665d8bf}, ! UUID
  {925e70f9-13db-4903-80a9-93fbd45f0660}, ! Version UUID
  1366307154,                             ! Creation Timestamp
  1366307154,                             ! Version Timestamp
  {b3215cc7-fb4c-4970-a8ed-adccae1707fb}; ! Name of Object 1

