
OS:Version,
  {cf5f2d10-a474-4329-990f-9e49a1cb3cae}, ! Handle
  0.9.3;                                  ! Version Identifier

OS:SizingPeriod:DesignDay,
  {402bb40d-deaf-4d4d-aee1-3d1dd42f0368}, ! Handle
  Glen Burnie/Baltimore/ Ann Clg 2% Condns WB=>MDB, ! Name
  29,                                     ! Maximum Dry-Bulb Temperature {C}
  10.4,                                   ! Daily Dry-Bulb Temperature Range {deltaC}
  24.2,                                   ! Humidity Indicating Conditions at Maximum Dry-Bulb {BasedOnField A3}
  100762,                                 ! Barometric Pressure {Pa}
  4.6,                                    ! Wind Speed {m/s}
  280,                                    ! Wind Direction {deg}
  0,                                      ! Sky Clearness
  0,                                      ! Rain Indicator
  0,                                      ! Snow Indicator
  21,                                     ! Day of Month
  7,                                      ! Month
  SummerDesignDay,                        ! Day Type
  0,                                      ! Daylight Saving Time Indicator
  Wetbulb,                                ! Humidity Indicating Type
  ,                                       ! Humidity Indicating Day Schedule Name
  DefaultMultipliers,                     ! Dry-Bulb Temperature Range Modifier Type
  ,                                       ! Dry-Bulb Temperature Range Modifier Schedule Name
  ASHRAETau,                              ! Solar Model Indicator
  ,                                       ! Beam Solar Day Schedule Name
  ,                                       ! Diffuse Solar Day Schedule Name
  0.552,                                  ! ASHRAE Taub {dimensionless}
  1.769;                                  ! ASHRAE Taud {dimensionless}

OS:ComponentData,
  {562b3810-0ba7-4849-b87e-2977cdd7c5a3}, ! Handle
  Component Data 1,                       ! Name
  {adcd69c9-5868-4b2b-a1b3-02a578bd4897}, ! UUID
  {647ece33-acaa-4211-aaa1-473da6385810}, ! Version UUID
  1366307838,                             ! Creation Timestamp
  1366307838,                             ! Version Timestamp
  {402bb40d-deaf-4d4d-aee1-3d1dd42f0368}; ! Name of Object 1

