
OS:Version,
  {65b71ab6-c8ab-49c4-be20-c66866382b21}, ! Handle
  0.9.3;                                  ! Version Identifier

OS:SizingPeriod:DesignDay,
  {2cb2c5ed-91c7-42db-b5fa-c7f479ef4146}, ! Handle
  Ellsworth Afb Ann Htg Wind 99% Condns WS=>MCDB, ! Name
  -2.6,                                   ! Maximum Dry-Bulb Temperature {C}
  0,                                      ! Daily Dry-Bulb Temperature Range {deltaC}
  -2.6,                                   ! Humidity Indicating Conditions at Maximum Dry-Bulb {BasedOnField A3}
  90093,                                  ! Barometric Pressure {Pa}
  16.5,                                   ! Wind Speed {m/s}
  10,                                     ! Wind Direction {deg}
  0,                                      ! Sky Clearness
  0,                                      ! Rain Indicator
  0,                                      ! Snow Indicator
  21,                                     ! Day of Month
  12,                                     ! Month
  WinterDesignDay,                        ! Day Type
  0,                                      ! Daylight Saving Time Indicator
  Wetbulb,                                ! Humidity Indicating Type
  ,                                       ! Humidity Indicating Day Schedule Name
  DefaultMultipliers,                     ! Dry-Bulb Temperature Range Modifier Type
  ,                                       ! Dry-Bulb Temperature Range Modifier Schedule Name
  ASHRAEClearSky;                         ! Solar Model Indicator

OS:ComponentData,
  {ec051dda-5593-4caa-9c4c-eae95f261dbe}, ! Handle
  Component Data 1,                       ! Name
  {20939ba9-8ed6-40b3-b31b-d3998f52c15b}, ! UUID
  {a50b704f-2c70-4a56-b945-7484e0520469}, ! Version UUID
  1366310393,                             ! Creation Timestamp
  1366310393,                             ! Version Timestamp
  {2cb2c5ed-91c7-42db-b5fa-c7f479ef4146}; ! Name of Object 1

