
OS:Version,
  {402c3358-6dd0-41ed-84cb-1dce5bfc54e2}, ! Handle
  0.9.3;                                  ! Version Identifier

OS:SizingPeriod:DesignDay,
  {fd62a9a9-402a-44eb-8c9e-b71ab275dff3}, ! Handle
  KODIAK Ann Hum_n 99.6% Condns DP=>MCDB, ! Name
  -11.4,                                  ! Maximum Dry-Bulb Temperature {C}
  0,                                      ! Daily Dry-Bulb Temperature Range {deltaC}
  -20,                                    ! Humidity Indicating Conditions at Maximum Dry-Bulb {BasedOnField A3}
  100917,                                 ! Barometric Pressure {Pa}
  6,                                      ! Wind Speed {m/s}
  300,                                    ! Wind Direction {deg}
  0,                                      ! Sky Clearness
  0,                                      ! Rain Indicator
  0,                                      ! Snow Indicator
  21,                                     ! Day of Month
  1,                                      ! Month
  WinterDesignDay,                        ! Day Type
  0,                                      ! Daylight Saving Time Indicator
  Dewpoint,                               ! Humidity Indicating Type
  ,                                       ! Humidity Indicating Day Schedule Name
  DefaultMultipliers,                     ! Dry-Bulb Temperature Range Modifier Type
  ,                                       ! Dry-Bulb Temperature Range Modifier Schedule Name
  ASHRAEClearSky;                         ! Solar Model Indicator

OS:ComponentData,
  {befa0498-eca0-4ce0-b13e-26383e4fb0c7}, ! Handle
  Component Data 1,                       ! Name
  {aa6de808-b035-4928-a570-00a3a155c017}, ! UUID
  {230edf54-486f-4f9c-a569-010461a93bcd}, ! Version UUID
  1366305370,                             ! Creation Timestamp
  1366305370,                             ! Version Timestamp
  {fd62a9a9-402a-44eb-8c9e-b71ab275dff3}; ! Name of Object 1

