
OS:Version,
  {bdae1488-7d38-4bde-bcc0-2a486e66fe49}, ! Handle
  0.9.3;                                  ! Version Identifier

OS:SizingPeriod:DesignDay,
  {78d15b7b-2c45-48e9-8c51-45cfd22c75df}, ! Handle
  Chicago Ohare Intl Ap Ann Htg 99.6% Condns DB, ! Name
  -20,                                    ! Maximum Dry-Bulb Temperature {C}
  0,                                      ! Daily Dry-Bulb Temperature Range {deltaC}
  -20,                                    ! Humidity Indicating Conditions at Maximum Dry-Bulb {BasedOnField A3}
  98934,                                  ! Barometric Pressure {Pa}
  4.9,                                    ! Wind Speed {m/s}
  270,                                    ! Wind Direction {deg}
  0,                                      ! Sky Clearness
  0,                                      ! Rain Indicator
  0,                                      ! Snow Indicator
  21,                                     ! Day of Month
  1,                                      ! Month
  WinterDesignDay,                        ! Day Type
  0,                                      ! Daylight Saving Time Indicator
  Wetbulb,                                ! Humidity Indicating Type
  ,                                       ! Humidity Indicating Day Schedule Name
  DefaultMultipliers,                     ! Dry-Bulb Temperature Range Modifier Type
  ,                                       ! Dry-Bulb Temperature Range Modifier Schedule Name
  ASHRAEClearSky;                         ! Solar Model Indicator

OS:ComponentData,
  {34b2ccc4-2eeb-4678-88cf-7ef10846f555}, ! Handle
  Component Data 1,                       ! Name
  {a7c0bf97-5e06-4e14-9979-03db549f97bb}, ! UUID
  {268e23f4-b8c7-47fc-9383-8b82179aebbf}, ! Version UUID
  1366307349,                             ! Creation Timestamp
  1366307349,                             ! Version Timestamp
  {78d15b7b-2c45-48e9-8c51-45cfd22c75df}; ! Name of Object 1

