
OS:Version,
  {4d649be5-cf10-4fdf-aea9-15ce1a7de613}, ! Handle
  0.9.3;                                  ! Version Identifier

OS:SizingPeriod:DesignDay,
  {198a5a1b-c688-42ae-a036-f00022fd1647}, ! Handle
  Ely Ann Clg .4% Condns Enth=>MDB,       ! Name
  26.1,                                   ! Maximum Dry-Bulb Temperature {C}
  20.3,                                   ! Daily Dry-Bulb Temperature Range {deltaC}
  51400,                                  ! Humidity Indicating Conditions at Maximum Dry-Bulb {BasedOnField A3}
  80397,                                  ! Barometric Pressure {Pa}
  5.3,                                    ! Wind Speed {m/s}
  220,                                    ! Wind Direction {deg}
  0,                                      ! Sky Clearness
  0,                                      ! Rain Indicator
  0,                                      ! Snow Indicator
  21,                                     ! Day of Month
  7,                                      ! Month
  SummerDesignDay,                        ! Day Type
  0,                                      ! Daylight Saving Time Indicator
  Enthalpy,                               ! Humidity Indicating Type
  ,                                       ! Humidity Indicating Day Schedule Name
  DefaultMultipliers,                     ! Dry-Bulb Temperature Range Modifier Type
  ,                                       ! Dry-Bulb Temperature Range Modifier Schedule Name
  ASHRAETau,                              ! Solar Model Indicator
  ,                                       ! Beam Solar Day Schedule Name
  ,                                       ! Diffuse Solar Day Schedule Name
  0.442,                                  ! ASHRAE Taub {dimensionless}
  1.871;                                  ! ASHRAE Taud {dimensionless}

OS:ComponentData,
  {72fb9d2e-afe0-46b9-82ba-5a8b30aa6285}, ! Handle
  Component Data 1,                       ! Name
  {46afb0c0-cd6a-446c-aee9-bc8ec66c316b}, ! UUID
  {131948bd-8e72-4138-beb9-35805fe7ceb9}, ! Version UUID
  1366309473,                             ! Creation Timestamp
  1366309473,                             ! Version Timestamp
  {198a5a1b-c688-42ae-a036-f00022fd1647}; ! Name of Object 1

