
OS:Version,
  {28857eb8-5306-46d0-8ba6-4a8d411132fe}, ! Handle
  0.9.3;                                  ! Version Identifier

OS:SizingPeriod:DesignDay,
  {82891b24-2d82-4a12-8247-4e7f2db33bde}, ! Handle
  Lovelock Ann Clg 2% Condns WB=>MDB,     ! Name
  31.1,                                   ! Maximum Dry-Bulb Temperature {C}
  20.2,                                   ! Daily Dry-Bulb Temperature Range {deltaC}
  16.9,                                   ! Humidity Indicating Conditions at Maximum Dry-Bulb {BasedOnField A3}
  87844,                                  ! Barometric Pressure {Pa}
  4.1,                                    ! Wind Speed {m/s}
  180,                                    ! Wind Direction {deg}
  0,                                      ! Sky Clearness
  0,                                      ! Rain Indicator
  0,                                      ! Snow Indicator
  21,                                     ! Day of Month
  7,                                      ! Month
  SummerDesignDay,                        ! Day Type
  0,                                      ! Daylight Saving Time Indicator
  Wetbulb,                                ! Humidity Indicating Type
  ,                                       ! Humidity Indicating Day Schedule Name
  DefaultMultipliers,                     ! Dry-Bulb Temperature Range Modifier Type
  ,                                       ! Dry-Bulb Temperature Range Modifier Schedule Name
  ASHRAETau,                              ! Solar Model Indicator
  ,                                       ! Beam Solar Day Schedule Name
  ,                                       ! Diffuse Solar Day Schedule Name
  0.427,                                  ! ASHRAE Taub {dimensionless}
  1.948;                                  ! ASHRAE Taud {dimensionless}

