
OS:Version,
  {3278ad11-a3ca-4bfc-831f-3ef9806c01b9}, ! Handle
  0.9.3;                                  ! Version Identifier

OS:SizingPeriod:DesignDay,
  {85364e7d-8b59-4e37-8d84-2e3ec6e6835b}, ! Handle
  Johnstown Cambria County Ap Ann Hum_n 99.6% Condns DP=>MCDB, ! Name
  -15,                                    ! Maximum Dry-Bulb Temperature {C}
  0,                                      ! Daily Dry-Bulb Temperature Range {deltaC}
  -21,                                    ! Humidity Indicating Conditions at Maximum Dry-Bulb {BasedOnField A3}
  93250,                                  ! Barometric Pressure {Pa}
  5.8,                                    ! Wind Speed {m/s}
  290,                                    ! Wind Direction {deg}
  0,                                      ! Sky Clearness
  0,                                      ! Rain Indicator
  0,                                      ! Snow Indicator
  21,                                     ! Day of Month
  1,                                      ! Month
  WinterDesignDay,                        ! Day Type
  0,                                      ! Daylight Saving Time Indicator
  Dewpoint,                               ! Humidity Indicating Type
  ,                                       ! Humidity Indicating Day Schedule Name
  DefaultMultipliers,                     ! Dry-Bulb Temperature Range Modifier Type
  ,                                       ! Dry-Bulb Temperature Range Modifier Schedule Name
  ASHRAEClearSky;                         ! Solar Model Indicator

OS:ComponentData,
  {3a3c0a08-64ff-409c-931a-0223cb638c28}, ! Handle
  Component Data 1,                       ! Name
  {f54527b5-997f-4c5a-a393-952a8d35570f}, ! UUID
  {f406389e-7117-47f9-95df-49c114c9df09}, ! Version UUID
  1366310201,                             ! Creation Timestamp
  1366310201,                             ! Version Timestamp
  {85364e7d-8b59-4e37-8d84-2e3ec6e6835b}; ! Name of Object 1

