
OS:Version,
  {d4d4a419-cb15-4b94-a762-3a92ca942529}, ! Handle
  0.9.3;                                  ! Version Identifier

OS:SizingPeriod:DesignDay,
  {0ddaccce-f910-4ee7-af0a-285801928950}, ! Handle
  Florence Regional Ap Ann Clg 1% Condns Enth=>MDB, ! Name
  31.8,                                   ! Maximum Dry-Bulb Temperature {C}
  10.6,                                   ! Daily Dry-Bulb Temperature Range {deltaC}
  79500,                                  ! Humidity Indicating Conditions at Maximum Dry-Bulb {BasedOnField A3}
  100798,                                 ! Barometric Pressure {Pa}
  4.1,                                    ! Wind Speed {m/s}
  230,                                    ! Wind Direction {deg}
  0,                                      ! Sky Clearness
  0,                                      ! Rain Indicator
  0,                                      ! Snow Indicator
  21,                                     ! Day of Month
  7,                                      ! Month
  SummerDesignDay,                        ! Day Type
  0,                                      ! Daylight Saving Time Indicator
  Enthalpy,                               ! Humidity Indicating Type
  ,                                       ! Humidity Indicating Day Schedule Name
  DefaultMultipliers,                     ! Dry-Bulb Temperature Range Modifier Type
  ,                                       ! Dry-Bulb Temperature Range Modifier Schedule Name
  ASHRAETau,                              ! Solar Model Indicator
  ,                                       ! Beam Solar Day Schedule Name
  ,                                       ! Diffuse Solar Day Schedule Name
  0.573,                                  ! ASHRAE Taub {dimensionless}
  1.746;                                  ! ASHRAE Taud {dimensionless}

OS:ComponentData,
  {76b1f916-8860-4e9a-bd84-99d8b73d3603}, ! Handle
  Component Data 1,                       ! Name
  {935b7917-6f11-44d8-90ab-0b74881ed04f}, ! UUID
  {98243b28-2992-4f96-9327-1a7b4c04a2d3}, ! Version UUID
  1366310353,                             ! Creation Timestamp
  1366310353,                             ! Version Timestamp
  {0ddaccce-f910-4ee7-af0a-285801928950}; ! Name of Object 1

