
OS:Version,
  {980008b5-7907-4bd8-9470-12b2b5352ac2}, ! Handle
  0.9.3;                                  ! Version Identifier

OS:SizingPeriod:DesignDay,
  {34e2a4b5-09a0-4acd-80cf-46111e2042bf}, ! Handle
  Kaiser Mem  Awos Ann Clg .4% Condns WB=>MDB, ! Name
  32.3,                                   ! Maximum Dry-Bulb Temperature {C}
  11.7,                                   ! Daily Dry-Bulb Temperature Range {deltaC}
  25.7,                                   ! Humidity Indicating Conditions at Maximum Dry-Bulb {BasedOnField A3}
  98182,                                  ! Barometric Pressure {Pa}
  3.7,                                    ! Wind Speed {m/s}
  250,                                    ! Wind Direction {deg}
  0,                                      ! Sky Clearness
  0,                                      ! Rain Indicator
  0,                                      ! Snow Indicator
  21,                                     ! Day of Month
  7,                                      ! Month
  SummerDesignDay,                        ! Day Type
  0,                                      ! Daylight Saving Time Indicator
  Wetbulb,                                ! Humidity Indicating Type
  ,                                       ! Humidity Indicating Day Schedule Name
  DefaultMultipliers,                     ! Dry-Bulb Temperature Range Modifier Type
  ,                                       ! Dry-Bulb Temperature Range Modifier Schedule Name
  ASHRAETau,                              ! Solar Model Indicator
  ,                                       ! Beam Solar Day Schedule Name
  ,                                       ! Diffuse Solar Day Schedule Name
  0.456,                                  ! ASHRAE Taub {dimensionless}
  2.075;                                  ! ASHRAE Taud {dimensionless}

OS:ComponentData,
  {0dd9d676-a988-4b76-a964-106ac96baf34}, ! Handle
  Component Data 1,                       ! Name
  {67084de9-42a2-4351-bbd5-4f58c2821a53}, ! UUID
  {f2be729c-eb63-4be1-b765-421080343af1}, ! Version UUID
  1366308514,                             ! Creation Timestamp
  1366308514,                             ! Version Timestamp
  {34e2a4b5-09a0-4acd-80cf-46111e2042bf}; ! Name of Object 1

