
OS:Version,
  {3f414d84-296e-4872-98a2-2e256aa0c23a}, ! Handle
  0.9.3;                                  ! Version Identifier

OS:SizingPeriod:DesignDay,
  {2e8438ed-b5b5-4349-ab28-ec44d12dca05}, ! Handle
  Cairns Field Fort Rucker Ann Clg 1% Condns DB=>MWB, ! Name
  34.1,                                   ! Maximum Dry-Bulb Temperature {C}
  10.2,                                   ! Daily Dry-Bulb Temperature Range {deltaC}
  24.5,                                   ! Humidity Indicating Conditions at Maximum Dry-Bulb {BasedOnField A3}
  100237,                                 ! Barometric Pressure {Pa}
  2.5,                                    ! Wind Speed {m/s}
  300,                                    ! Wind Direction {deg}
  0,                                      ! Sky Clearness
  0,                                      ! Rain Indicator
  0,                                      ! Snow Indicator
  21,                                     ! Day of Month
  7,                                      ! Month
  SummerDesignDay,                        ! Day Type
  0,                                      ! Daylight Saving Time Indicator
  Wetbulb,                                ! Humidity Indicating Type
  ,                                       ! Humidity Indicating Day Schedule Name
  DefaultMultipliers,                     ! Dry-Bulb Temperature Range Modifier Type
  ,                                       ! Dry-Bulb Temperature Range Modifier Schedule Name
  ASHRAETau,                              ! Solar Model Indicator
  ,                                       ! Beam Solar Day Schedule Name
  ,                                       ! Diffuse Solar Day Schedule Name
  0.546,                                  ! ASHRAE Taub {dimensionless}
  1.83;                                   ! ASHRAE Taud {dimensionless}

OS:ComponentData,
  {4f81aadf-ec58-468e-8939-e9c9ca3cbf85}, ! Handle
  Component Data 1,                       ! Name
  {53a25ba8-e742-4819-bae4-a1f7e5023814}, ! UUID
  {438cb5a8-1177-410e-aada-c0229ab72e95}, ! Version UUID
  1366305656,                             ! Creation Timestamp
  1366305656,                             ! Version Timestamp
  {2e8438ed-b5b5-4349-ab28-ec44d12dca05}; ! Name of Object 1

