
OS:Version,
  {190a9e23-6679-436b-be10-2cb98f03dcf9}, ! Handle
  0.9.3;                                  ! Version Identifier

OS:SizingPeriod:DesignDay,
  {bda74c1d-c2ec-4897-9d32-bfdb6d2f76a5}, ! Handle
  Baker Municipal Ap Ann Clg .4% Condns DB=>MWB, ! Name
  33.8,                                   ! Maximum Dry-Bulb Temperature {C}
  19.6,                                   ! Daily Dry-Bulb Temperature Range {deltaC}
  17.2,                                   ! Humidity Indicating Conditions at Maximum Dry-Bulb {BasedOnField A3}
  89581,                                  ! Barometric Pressure {Pa}
  3.9,                                    ! Wind Speed {m/s}
  320,                                    ! Wind Direction {deg}
  0,                                      ! Sky Clearness
  0,                                      ! Rain Indicator
  0,                                      ! Snow Indicator
  21,                                     ! Day of Month
  7,                                      ! Month
  SummerDesignDay,                        ! Day Type
  0,                                      ! Daylight Saving Time Indicator
  Wetbulb,                                ! Humidity Indicating Type
  ,                                       ! Humidity Indicating Day Schedule Name
  DefaultMultipliers,                     ! Dry-Bulb Temperature Range Modifier Type
  ,                                       ! Dry-Bulb Temperature Range Modifier Schedule Name
  ASHRAETau,                              ! Solar Model Indicator
  ,                                       ! Beam Solar Day Schedule Name
  ,                                       ! Diffuse Solar Day Schedule Name
  0.363,                                  ! ASHRAE Taub {dimensionless}
  2.324;                                  ! ASHRAE Taud {dimensionless}

