
OS:Version,
  {bdc3a049-7e4b-4bd8-a117-3db766196e8d}, ! Handle
  0.9.3;                                  ! Version Identifier

OS:SizingPeriod:DesignDay,
  {5ed4aaa5-39eb-4e41-a9bd-eefb5e454f23}, ! Handle
  Jacksonville Intl Arpt Ann Htg Wind 99% Condns WS=>MCDB, ! Name
  13.4,                                   ! Maximum Dry-Bulb Temperature {C}
  0,                                      ! Daily Dry-Bulb Temperature Range {deltaC}
  13.4,                                   ! Humidity Indicating Conditions at Maximum Dry-Bulb {BasedOnField A3}
  101229,                                 ! Barometric Pressure {Pa}
  9.3,                                    ! Wind Speed {m/s}
  320,                                    ! Wind Direction {deg}
  0,                                      ! Sky Clearness
  0,                                      ! Rain Indicator
  0,                                      ! Snow Indicator
  21,                                     ! Day of Month
  1,                                      ! Month
  WinterDesignDay,                        ! Day Type
  0,                                      ! Daylight Saving Time Indicator
  Wetbulb,                                ! Humidity Indicating Type
  ,                                       ! Humidity Indicating Day Schedule Name
  DefaultMultipliers,                     ! Dry-Bulb Temperature Range Modifier Type
  ,                                       ! Dry-Bulb Temperature Range Modifier Schedule Name
  ASHRAEClearSky;                         ! Solar Model Indicator

OS:ComponentData,
  {5677ee63-b302-4245-b74d-a1d5d16e23d9}, ! Handle
  Component Data 1,                       ! Name
  {dfc16e05-6d65-4762-b1c3-cabfa8cd0aba}, ! UUID
  {543b3425-bb91-48cf-ab99-dcf088914340}, ! Version UUID
  1366306822,                             ! Creation Timestamp
  1366306822,                             ! Version Timestamp
  {5ed4aaa5-39eb-4e41-a9bd-eefb5e454f23}; ! Name of Object 1

