
OS:Version,
  {78543fc5-837f-494a-8eb4-00e6f9252f82}, ! Handle
  0.9.3;                                  ! Version Identifier

OS:SizingPeriod:DesignDay,
  {7b14af06-9f55-4f0b-842a-7e643775dc25}, ! Handle
  Charleston Ann Clg 2% Condns Enth=>MDB, ! Name
  28.2,                                   ! Maximum Dry-Bulb Temperature {C}
  10.7,                                   ! Daily Dry-Bulb Temperature Range {deltaC}
  71200,                                  ! Humidity Indicating Conditions at Maximum Dry-Bulb {BasedOnField A3}
  97784,                                  ! Barometric Pressure {Pa}
  2.9,                                    ! Wind Speed {m/s}
  240,                                    ! Wind Direction {deg}
  0,                                      ! Sky Clearness
  0,                                      ! Rain Indicator
  0,                                      ! Snow Indicator
  21,                                     ! Day of Month
  7,                                      ! Month
  SummerDesignDay,                        ! Day Type
  0,                                      ! Daylight Saving Time Indicator
  Enthalpy,                               ! Humidity Indicating Type
  ,                                       ! Humidity Indicating Day Schedule Name
  DefaultMultipliers,                     ! Dry-Bulb Temperature Range Modifier Type
  ,                                       ! Dry-Bulb Temperature Range Modifier Schedule Name
  ASHRAETau,                              ! Solar Model Indicator
  ,                                       ! Beam Solar Day Schedule Name
  ,                                       ! Diffuse Solar Day Schedule Name
  0.513,                                  ! ASHRAE Taub {dimensionless}
  1.859;                                  ! ASHRAE Taud {dimensionless}

OS:ComponentData,
  {231a3be5-9694-423d-a60d-c619596d4f62}, ! Handle
  Component Data 1,                       ! Name
  {2ae8ede2-de8a-48ee-a864-b720f1e2182a}, ! UUID
  {7761e317-888b-474c-9848-cc317b63ff2f}, ! Version UUID
  1366311621,                             ! Creation Timestamp
  1366311621,                             ! Version Timestamp
  {7b14af06-9f55-4f0b-842a-7e643775dc25}; ! Name of Object 1

