
OS:Version,
  {b3e4c55c-c470-4a00-9143-7d1a0059667f}, ! Handle
  0.9.3;                                  ! Version Identifier

OS:SizingPeriod:DesignDay,
  {283ce9f9-a8eb-4729-9155-94dde0eb6abc}, ! Handle
  Binghamton Ann Clg .4% Condns DP=>MDB,  ! Name
  24.8,                                   ! Maximum Dry-Bulb Temperature {C}
  9.7,                                    ! Daily Dry-Bulb Temperature Range {deltaC}
  21.2,                                   ! Humidity Indicating Conditions at Maximum Dry-Bulb {BasedOnField A3}
  95495,                                  ! Barometric Pressure {Pa}
  4.6,                                    ! Wind Speed {m/s}
  240,                                    ! Wind Direction {deg}
  0,                                      ! Sky Clearness
  0,                                      ! Rain Indicator
  0,                                      ! Snow Indicator
  21,                                     ! Day of Month
  7,                                      ! Month
  SummerDesignDay,                        ! Day Type
  0,                                      ! Daylight Saving Time Indicator
  Dewpoint,                               ! Humidity Indicating Type
  ,                                       ! Humidity Indicating Day Schedule Name
  DefaultMultipliers,                     ! Dry-Bulb Temperature Range Modifier Type
  ,                                       ! Dry-Bulb Temperature Range Modifier Schedule Name
  ASHRAETau,                              ! Solar Model Indicator
  ,                                       ! Beam Solar Day Schedule Name
  ,                                       ! Diffuse Solar Day Schedule Name
  0.452,                                  ! ASHRAE Taub {dimensionless}
  2.004;                                  ! ASHRAE Taud {dimensionless}

OS:ComponentData,
  {b0a880b2-c05c-4097-9cd3-7a8435ebc212}, ! Handle
  Component Data 1,                       ! Name
  {4adfeda4-cd10-4421-b2d2-384a4bea63c2}, ! UUID
  {84d34c96-957c-4d4c-97cd-e1fa56ca98d9}, ! Version UUID
  1366309590,                             ! Creation Timestamp
  1366309590,                             ! Version Timestamp
  {283ce9f9-a8eb-4729-9155-94dde0eb6abc}; ! Name of Object 1

