
OS:Version,
  {fae13cb9-cf32-4b0a-8129-0c8ec74a0ebd}, ! Handle
  0.9.3;                                  ! Version Identifier

OS:SizingPeriod:DesignDay,
  {c80fae26-563b-47d7-a8d1-d7a496057012}, ! Handle
  Elko Municipal Arpt Ann Clg 1% Condns WB=>MDB, ! Name
  29.4,                                   ! Maximum Dry-Bulb Temperature {C}
  21.8,                                   ! Daily Dry-Bulb Temperature Range {deltaC}
  16.5,                                   ! Humidity Indicating Conditions at Maximum Dry-Bulb {BasedOnField A3}
  84059,                                  ! Barometric Pressure {Pa}
  4.1,                                    ! Wind Speed {m/s}
  240,                                    ! Wind Direction {deg}
  0,                                      ! Sky Clearness
  0,                                      ! Rain Indicator
  0,                                      ! Snow Indicator
  21,                                     ! Day of Month
  7,                                      ! Month
  SummerDesignDay,                        ! Day Type
  0,                                      ! Daylight Saving Time Indicator
  Wetbulb,                                ! Humidity Indicating Type
  ,                                       ! Humidity Indicating Day Schedule Name
  DefaultMultipliers,                     ! Dry-Bulb Temperature Range Modifier Type
  ,                                       ! Dry-Bulb Temperature Range Modifier Schedule Name
  ASHRAETau,                              ! Solar Model Indicator
  ,                                       ! Beam Solar Day Schedule Name
  ,                                       ! Diffuse Solar Day Schedule Name
  0.446,                                  ! ASHRAE Taub {dimensionless}
  1.888;                                  ! ASHRAE Taud {dimensionless}

OS:ComponentData,
  {3f5bd7f8-a7f5-4914-a566-a7158a1950f7}, ! Handle
  Component Data 1,                       ! Name
  {e808765c-6b72-4ac6-9752-3ae1ae512e53}, ! UUID
  {edbd3f2a-855f-432d-b052-b85fa3b2dcdb}, ! Version UUID
  1366309467,                             ! Creation Timestamp
  1366309467,                             ! Version Timestamp
  {c80fae26-563b-47d7-a8d1-d7a496057012}; ! Name of Object 1

