
OS:Version,
  {3df392ab-548c-40bd-925c-de8aad2c3788}, ! Handle
  0.9.3;                                  ! Version Identifier

OS:SizingPeriod:DesignDay,
  {28508ba7-1822-49db-88da-434845497720}, ! Handle
  ELKINS Ann Clg 2% Condns WB=>MDB,       ! Name
  26.3,                                   ! Maximum Dry-Bulb Temperature {C}
  12,                                     ! Daily Dry-Bulb Temperature Range {deltaC}
  21.7,                                   ! Humidity Indicating Conditions at Maximum Dry-Bulb {BasedOnField A3}
  94390,                                  ! Barometric Pressure {Pa}
  3.2,                                    ! Wind Speed {m/s}
  300,                                    ! Wind Direction {deg}
  0,                                      ! Sky Clearness
  0,                                      ! Rain Indicator
  0,                                      ! Snow Indicator
  21,                                     ! Day of Month
  7,                                      ! Month
  SummerDesignDay,                        ! Day Type
  0,                                      ! Daylight Saving Time Indicator
  Wetbulb,                                ! Humidity Indicating Type
  ,                                       ! Humidity Indicating Day Schedule Name
  DefaultMultipliers,                     ! Dry-Bulb Temperature Range Modifier Type
  ,                                       ! Dry-Bulb Temperature Range Modifier Schedule Name
  ASHRAETau,                              ! Solar Model Indicator
  ,                                       ! Beam Solar Day Schedule Name
  ,                                       ! Diffuse Solar Day Schedule Name
  0.489,                                  ! ASHRAE Taub {dimensionless}
  1.911;                                  ! ASHRAE Taud {dimensionless}

OS:ComponentData,
  {01831a9e-6400-4c7f-a41b-9671c30d0743}, ! Handle
  Component Data 1,                       ! Name
  {821189af-e808-4cc2-98d2-f67f5541de0a}, ! UUID
  {c01522de-502a-465c-b84f-639d9134d90c}, ! Version UUID
  1366311647,                             ! Creation Timestamp
  1366311647,                             ! Version Timestamp
  {28508ba7-1822-49db-88da-434845497720}; ! Name of Object 1

