
OS:Version,
  {0aa02aa0-cd25-40df-a8ae-4f50a2af8cb3}, ! Handle
  0.9.3;                                  ! Version Identifier

OS:SizingPeriod:DesignDay,
  {17a86303-557c-4b7c-876a-f5d6a58bdaa2}, ! Handle
  Bangor/Dow AFB Ann Clg 2% Condns DP=>MDB, ! Name
  23.2,                                   ! Maximum Dry-Bulb Temperature {C}
  11.3,                                   ! Daily Dry-Bulb Temperature Range {deltaC}
  19.1,                                   ! Humidity Indicating Conditions at Maximum Dry-Bulb {BasedOnField A3}
  100654,                                 ! Barometric Pressure {Pa}
  4.5,                                    ! Wind Speed {m/s}
  280,                                    ! Wind Direction {deg}
  0,                                      ! Sky Clearness
  0,                                      ! Rain Indicator
  0,                                      ! Snow Indicator
  21,                                     ! Day of Month
  7,                                      ! Month
  SummerDesignDay,                        ! Day Type
  0,                                      ! Daylight Saving Time Indicator
  Dewpoint,                               ! Humidity Indicating Type
  ,                                       ! Humidity Indicating Day Schedule Name
  DefaultMultipliers,                     ! Dry-Bulb Temperature Range Modifier Type
  ,                                       ! Dry-Bulb Temperature Range Modifier Schedule Name
  ASHRAETau,                              ! Solar Model Indicator
  ,                                       ! Beam Solar Day Schedule Name
  ,                                       ! Diffuse Solar Day Schedule Name
  0.458,                                  ! ASHRAE Taub {dimensionless}
  2.019;                                  ! ASHRAE Taud {dimensionless}

OS:ComponentData,
  {32a9cb95-7ead-4b53-a8a8-421fb40e4da3}, ! Handle
  Component Data 1,                       ! Name
  {c21818ac-591a-412f-8207-da38b308f583}, ! UUID
  {69e30deb-5744-4e48-a02f-7202deffa02f}, ! Version UUID
  1366307872,                             ! Creation Timestamp
  1366307872,                             ! Version Timestamp
  {17a86303-557c-4b7c-876a-f5d6a58bdaa2}; ! Name of Object 1

