
OS:Version,
  {47d02246-7871-4e10-b7cc-a00765ee39b3}, ! Handle
  0.9.3;                                  ! Version Identifier

OS:SizingPeriod:DesignDay,
  {c3bd9638-833c-45fe-9328-727509295932}, ! Handle
  El Dorado Goodwin Field Ann Htg Wind 99.6% Condns WS=>MCDB, ! Name
  15.7,                                   ! Maximum Dry-Bulb Temperature {C}
  0,                                      ! Daily Dry-Bulb Temperature Range {deltaC}
  15.7,                                   ! Humidity Indicating Conditions at Maximum Dry-Bulb {BasedOnField A3}
  100403,                                 ! Barometric Pressure {Pa}
  8.5,                                    ! Wind Speed {m/s}
  20,                                     ! Wind Direction {deg}
  0,                                      ! Sky Clearness
  0,                                      ! Rain Indicator
  0,                                      ! Snow Indicator
  21,                                     ! Day of Month
  1,                                      ! Month
  WinterDesignDay,                        ! Day Type
  0,                                      ! Daylight Saving Time Indicator
  Wetbulb,                                ! Humidity Indicating Type
  ,                                       ! Humidity Indicating Day Schedule Name
  DefaultMultipliers,                     ! Dry-Bulb Temperature Range Modifier Type
  ,                                       ! Dry-Bulb Temperature Range Modifier Schedule Name
  ASHRAEClearSky;                         ! Solar Model Indicator

OS:ComponentData,
  {cfa55495-061c-4eef-849d-23487b74b16a}, ! Handle
  Component Data 1,                       ! Name
  {4551b4f2-3f03-4d03-af1e-ccdd2e1567d5}, ! UUID
  {f61f0399-d66c-4662-9fb1-92b8b2473f92}, ! Version UUID
  1366306197,                             ! Creation Timestamp
  1366306197,                             ! Version Timestamp
  {c3bd9638-833c-45fe-9328-727509295932}; ! Name of Object 1

