
OS:Version,
  {54b84948-35fd-4316-9dd9-606c65b34d3b}, ! Handle
  0.9.3;                                  ! Version Identifier

OS:SizingPeriod:DesignDay,
  {f097b262-5d48-4a07-bbdf-48053612ab55}, ! Handle
  Hilo International Ap Ann Clg 1% Condns Enth=>MDB, ! Name
  27.5,                                   ! Maximum Dry-Bulb Temperature {C}
  7,                                      ! Daily Dry-Bulb Temperature Range {deltaC}
  73400,                                  ! Humidity Indicating Conditions at Maximum Dry-Bulb {BasedOnField A3}
  101217,                                 ! Barometric Pressure {Pa}
  4.8,                                    ! Wind Speed {m/s}
  90,                                     ! Wind Direction {deg}
  0,                                      ! Sky Clearness
  0,                                      ! Rain Indicator
  0,                                      ! Snow Indicator
  21,                                     ! Day of Month
  8,                                      ! Month
  SummerDesignDay,                        ! Day Type
  0,                                      ! Daylight Saving Time Indicator
  Enthalpy,                               ! Humidity Indicating Type
  ,                                       ! Humidity Indicating Day Schedule Name
  DefaultMultipliers,                     ! Dry-Bulb Temperature Range Modifier Type
  ,                                       ! Dry-Bulb Temperature Range Modifier Schedule Name
  ASHRAETau,                              ! Solar Model Indicator
  ,                                       ! Beam Solar Day Schedule Name
  ,                                       ! Diffuse Solar Day Schedule Name
  0.411,                                  ! ASHRAE Taub {dimensionless}
  2.427;                                  ! ASHRAE Taud {dimensionless}

OS:ComponentData,
  {8ce5d9ba-b588-4e98-841e-4682cfbcbbe3}, ! Handle
  Component Data 1,                       ! Name
  {30002ed5-c073-432e-893b-2643314af683}, ! UUID
  {8ff54af3-0ed2-4621-8d9e-9cdac8bd2262}, ! Version UUID
  1366307085,                             ! Creation Timestamp
  1366307085,                             ! Version Timestamp
  {f097b262-5d48-4a07-bbdf-48053612ab55}; ! Name of Object 1

