
OS:Version,
  {752c3aab-257a-4a87-a556-ee53d42dcdec}, ! Handle
  0.9.3;                                  ! Version Identifier

OS:SizingPeriod:DesignDay,
  {d7998eaf-a1ac-4bb8-bb84-3ba18459b81c}, ! Handle
  Chula Vista Brown Field Naas Ann Clg .4% Condns WB=>MDB, ! Name
  27.6,                                   ! Maximum Dry-Bulb Temperature {C}
  8.9,                                    ! Daily Dry-Bulb Temperature Range {deltaC}
  21.8,                                   ! Humidity Indicating Conditions at Maximum Dry-Bulb {BasedOnField A3}
  99429,                                  ! Barometric Pressure {Pa}
  4.1,                                    ! Wind Speed {m/s}
  280,                                    ! Wind Direction {deg}
  0,                                      ! Sky Clearness
  0,                                      ! Rain Indicator
  0,                                      ! Snow Indicator
  21,                                     ! Day of Month
  8,                                      ! Month
  SummerDesignDay,                        ! Day Type
  0,                                      ! Daylight Saving Time Indicator
  Wetbulb,                                ! Humidity Indicating Type
  ,                                       ! Humidity Indicating Day Schedule Name
  DefaultMultipliers,                     ! Dry-Bulb Temperature Range Modifier Type
  ,                                       ! Dry-Bulb Temperature Range Modifier Schedule Name
  ASHRAETau,                              ! Solar Model Indicator
  ,                                       ! Beam Solar Day Schedule Name
  ,                                       ! Diffuse Solar Day Schedule Name
  0.412,                                  ! ASHRAE Taub {dimensionless}
  2.276;                                  ! ASHRAE Taud {dimensionless}

OS:ComponentData,
  {c8461108-9038-4a27-8500-1fc19320e37e}, ! Handle
  Component Data 1,                       ! Name
  {0cb2b886-55db-45a7-a4d0-2e81406e8ba6}, ! UUID
  {045fd7d8-583f-4635-be5f-be018096db74}, ! Version UUID
  1366306414,                             ! Creation Timestamp
  1366306414,                             ! Version Timestamp
  {d7998eaf-a1ac-4bb8-bb84-3ba18459b81c}; ! Name of Object 1

