
OS:Version,
  {f1875417-2c78-4474-8fec-69d1468c2412}, ! Handle
  0.9.3;                                  ! Version Identifier

OS:SizingPeriod:DesignDay,
  {3967213d-7b39-4028-88e4-47755adbcb7c}, ! Handle
  Dalhart Municipal Ap Ann Clg 1% Condns Enth=>MDB, ! Name
  29.7,                                   ! Maximum Dry-Bulb Temperature {C}
  15.2,                                   ! Daily Dry-Bulb Temperature Range {deltaC}
  64400,                                  ! Humidity Indicating Conditions at Maximum Dry-Bulb {BasedOnField A3}
  87545,                                  ! Barometric Pressure {Pa}
  6.5,                                    ! Wind Speed {m/s}
  180,                                    ! Wind Direction {deg}
  0,                                      ! Sky Clearness
  0,                                      ! Rain Indicator
  0,                                      ! Snow Indicator
  21,                                     ! Day of Month
  7,                                      ! Month
  SummerDesignDay,                        ! Day Type
  0,                                      ! Daylight Saving Time Indicator
  Enthalpy,                               ! Humidity Indicating Type
  ,                                       ! Humidity Indicating Day Schedule Name
  DefaultMultipliers,                     ! Dry-Bulb Temperature Range Modifier Type
  ,                                       ! Dry-Bulb Temperature Range Modifier Schedule Name
  ASHRAETau,                              ! Solar Model Indicator
  ,                                       ! Beam Solar Day Schedule Name
  ,                                       ! Diffuse Solar Day Schedule Name
  0.401,                                  ! ASHRAE Taub {dimensionless}
  2.151;                                  ! ASHRAE Taud {dimensionless}

OS:ComponentData,
  {59483fc2-4a39-4e03-9f95-417e8eb579e8}, ! Handle
  Component Data 1,                       ! Name
  {ad9ee50b-bec8-40ba-a9f7-d05c85dcb39d}, ! UUID
  {d7ae342c-f3ba-434a-8a5c-a829dc39e719}, ! Version UUID
  1366310651,                             ! Creation Timestamp
  1366310651,                             ! Version Timestamp
  {3967213d-7b39-4028-88e4-47755adbcb7c}; ! Name of Object 1

