
OS:Version,
  {0c9607f1-18f2-4079-9794-fc68763bce1e}, ! Handle
  0.9.3;                                  ! Version Identifier

OS:SizingPeriod:DesignDay,
  {6c10eba5-b9ae-415e-9ac8-32dcf0da32b9}, ! Handle
  Little Rock Afb Ann Clg 1% Condns Enth=>MDB, ! Name
  32.3,                                   ! Maximum Dry-Bulb Temperature {C}
  11.1,                                   ! Daily Dry-Bulb Temperature Range {deltaC}
  83700,                                  ! Humidity Indicating Conditions at Maximum Dry-Bulb {BasedOnField A3}
  100094,                                 ! Barometric Pressure {Pa}
  3.5,                                    ! Wind Speed {m/s}
  190,                                    ! Wind Direction {deg}
  0,                                      ! Sky Clearness
  0,                                      ! Rain Indicator
  0,                                      ! Snow Indicator
  21,                                     ! Day of Month
  7,                                      ! Month
  SummerDesignDay,                        ! Day Type
  0,                                      ! Daylight Saving Time Indicator
  Enthalpy,                               ! Humidity Indicating Type
  ,                                       ! Humidity Indicating Day Schedule Name
  DefaultMultipliers,                     ! Dry-Bulb Temperature Range Modifier Type
  ,                                       ! Dry-Bulb Temperature Range Modifier Schedule Name
  ASHRAETau,                              ! Solar Model Indicator
  ,                                       ! Beam Solar Day Schedule Name
  ,                                       ! Diffuse Solar Day Schedule Name
  0.512,                                  ! ASHRAE Taub {dimensionless}
  1.909;                                  ! ASHRAE Taud {dimensionless}

OS:ComponentData,
  {7fce1d98-8e47-4997-be2f-f583e89c591f}, ! Handle
  Component Data 1,                       ! Name
  {fd03607b-b782-4472-80e3-7f7b01ca32c0}, ! UUID
  {9a58b7aa-145f-4bff-aa2f-a22014ba4c13}, ! Version UUID
  1366306236,                             ! Creation Timestamp
  1366306236,                             ! Version Timestamp
  {6c10eba5-b9ae-415e-9ac8-32dcf0da32b9}; ! Name of Object 1

