
OS:Version,
  {8ca5a1c7-8209-455b-9c87-a0f3151b6c8c}, ! Handle
  0.9.3;                                  ! Version Identifier

OS:SizingPeriod:DesignDay,
  {50266584-9f5e-4a35-9e55-5f24a8a1ebcd}, ! Handle
  Helena Ann Clg 2% Condns DB=>MWB,       ! Name
  29.9,                                   ! Maximum Dry-Bulb Temperature {C}
  16.1,                                   ! Daily Dry-Bulb Temperature Range {deltaC}
  15.5,                                   ! Humidity Indicating Conditions at Maximum Dry-Bulb {BasedOnField A3}
  87844,                                  ! Barometric Pressure {Pa}
  4.9,                                    ! Wind Speed {m/s}
  290,                                    ! Wind Direction {deg}
  0,                                      ! Sky Clearness
  0,                                      ! Rain Indicator
  0,                                      ! Snow Indicator
  21,                                     ! Day of Month
  7,                                      ! Month
  SummerDesignDay,                        ! Day Type
  0,                                      ! Daylight Saving Time Indicator
  Wetbulb,                                ! Humidity Indicating Type
  ,                                       ! Humidity Indicating Day Schedule Name
  DefaultMultipliers,                     ! Dry-Bulb Temperature Range Modifier Type
  ,                                       ! Dry-Bulb Temperature Range Modifier Schedule Name
  ASHRAETau,                              ! Solar Model Indicator
  ,                                       ! Beam Solar Day Schedule Name
  ,                                       ! Diffuse Solar Day Schedule Name
  0.38,                                   ! ASHRAE Taub {dimensionless}
  2.232;                                  ! ASHRAE Taud {dimensionless}

OS:ComponentData,
  {a539a410-9d75-461d-b7da-c4cba102f34b}, ! Handle
  Component Data 1,                       ! Name
  {63047b55-a3f7-4d95-8c86-6db2ff534aa2}, ! UUID
  {c755aa74-1241-438f-b81f-e6ddc486ebbb}, ! Version UUID
  1366308793,                             ! Creation Timestamp
  1366308793,                             ! Version Timestamp
  {50266584-9f5e-4a35-9e55-5f24a8a1ebcd}; ! Name of Object 1

