
OS:Version,
  {1a4969c4-29a2-4a2a-90c1-b7f23a93b911}, ! Handle
  0.9.3;                                  ! Version Identifier

OS:SizingPeriod:DesignDay,
  {bcc1794e-4aaf-418d-80bc-4ade7d64146c}, ! Handle
  Jamestown Municipal Arpt Ann Clg 1% Condns DP=>MDB, ! Name
  26.2,                                   ! Maximum Dry-Bulb Temperature {C}
  12.5,                                   ! Daily Dry-Bulb Temperature Range {deltaC}
  20.7,                                   ! Humidity Indicating Conditions at Maximum Dry-Bulb {BasedOnField A3}
  95977,                                  ! Barometric Pressure {Pa}
  5.7,                                    ! Wind Speed {m/s}
  170,                                    ! Wind Direction {deg}
  0,                                      ! Sky Clearness
  0,                                      ! Rain Indicator
  0,                                      ! Snow Indicator
  21,                                     ! Day of Month
  7,                                      ! Month
  SummerDesignDay,                        ! Day Type
  0,                                      ! Daylight Saving Time Indicator
  Dewpoint,                               ! Humidity Indicating Type
  ,                                       ! Humidity Indicating Day Schedule Name
  DefaultMultipliers,                     ! Dry-Bulb Temperature Range Modifier Type
  ,                                       ! Dry-Bulb Temperature Range Modifier Schedule Name
  ASHRAETau,                              ! Solar Model Indicator
  ,                                       ! Beam Solar Day Schedule Name
  ,                                       ! Diffuse Solar Day Schedule Name
  0.384,                                  ! ASHRAE Taub {dimensionless}
  2.288;                                  ! ASHRAE Taud {dimensionless}

OS:ComponentData,
  {dbf97ced-9524-4ecb-be93-2507ff47bce8}, ! Handle
  Component Data 1,                       ! Name
  {92a70480-bac2-4f6c-981a-4233651fc6ce}, ! UUID
  {73fe071e-078d-445a-b55e-e4ba21c38491}, ! Version UUID
  1366309052,                             ! Creation Timestamp
  1366309052,                             ! Version Timestamp
  {bcc1794e-4aaf-418d-80bc-4ade7d64146c}; ! Name of Object 1

