
OS:Version,
  {53a0edb6-5244-4c30-a7d0-1c37a45275a8}, ! Handle
  0.9.3;                                  ! Version Identifier

OS:SizingPeriod:DesignDay,
  {4d6d8f2a-843b-4d62-bcc9-7b5a5bba7466}, ! Handle
  Fairbanks Intl Arpt Ann Clg .4% Condns DP=>MDB, ! Name
  18.4,                                   ! Maximum Dry-Bulb Temperature {C}
  10.2,                                   ! Daily Dry-Bulb Temperature Range {deltaC}
  14.7,                                   ! Humidity Indicating Conditions at Maximum Dry-Bulb {BasedOnField A3}
  99737,                                  ! Barometric Pressure {Pa}
  3.1,                                    ! Wind Speed {m/s}
  180,                                    ! Wind Direction {deg}
  0,                                      ! Sky Clearness
  0,                                      ! Rain Indicator
  0,                                      ! Snow Indicator
  21,                                     ! Day of Month
  7,                                      ! Month
  SummerDesignDay,                        ! Day Type
  0,                                      ! Daylight Saving Time Indicator
  Dewpoint,                               ! Humidity Indicating Type
  ,                                       ! Humidity Indicating Day Schedule Name
  DefaultMultipliers,                     ! Dry-Bulb Temperature Range Modifier Type
  ,                                       ! Dry-Bulb Temperature Range Modifier Schedule Name
  ASHRAETau,                              ! Solar Model Indicator
  ,                                       ! Beam Solar Day Schedule Name
  ,                                       ! Diffuse Solar Day Schedule Name
  0.387,                                  ! ASHRAE Taub {dimensionless}
  2.212;                                  ! ASHRAE Taud {dimensionless}

