
OS:Version,
  {5ee11a1c-87c5-4a43-8307-826be3ce5f24}, ! Handle
  0.9.3;                                  ! Version Identifier

OS:SizingPeriod:DesignDay,
  {386816bc-3f56-4ccb-ad13-86120343d585}, ! Handle
  Big Delta Allen Aaf Ann Clg .4% Condns Enth=>MDB, ! Name
  23.9,                                   ! Maximum Dry-Bulb Temperature {C}
  9.5,                                    ! Daily Dry-Bulb Temperature Range {deltaC}
  45100,                                  ! Humidity Indicating Conditions at Maximum Dry-Bulb {BasedOnField A3}
  96773,                                  ! Barometric Pressure {Pa}
  3.3,                                    ! Wind Speed {m/s}
  310,                                    ! Wind Direction {deg}
  0,                                      ! Sky Clearness
  0,                                      ! Rain Indicator
  0,                                      ! Snow Indicator
  21,                                     ! Day of Month
  7,                                      ! Month
  SummerDesignDay,                        ! Day Type
  0,                                      ! Daylight Saving Time Indicator
  Enthalpy,                               ! Humidity Indicating Type
  ,                                       ! Humidity Indicating Day Schedule Name
  DefaultMultipliers,                     ! Dry-Bulb Temperature Range Modifier Type
  ,                                       ! Dry-Bulb Temperature Range Modifier Schedule Name
  ASHRAETau,                              ! Solar Model Indicator
  ,                                       ! Beam Solar Day Schedule Name
  ,                                       ! Diffuse Solar Day Schedule Name
  0.398,                                  ! ASHRAE Taub {dimensionless}
  2.083;                                  ! ASHRAE Taud {dimensionless}

OS:ComponentData,
  {4ba22492-50f9-44b2-a36d-db380fc5fbe1}, ! Handle
  Component Data 1,                       ! Name
  {dd460b46-e461-4ee8-83d0-c92d330bfee1}, ! UUID
  {9cc5e636-4cb0-4425-850c-f6af2faeee6f}, ! Version UUID
  1366304780,                             ! Creation Timestamp
  1366304780,                             ! Version Timestamp
  {386816bc-3f56-4ccb-ad13-86120343d585}; ! Name of Object 1

