
OS:Version,
  {77aa65e3-9efc-4608-a066-3f0c3bc603fe}, ! Handle
  0.9.3;                                  ! Version Identifier

OS:SizingPeriod:DesignDay,
  {428d5a83-e224-4a63-8451-2ea6b4de8f73}, ! Handle
  Crookston Muni Fld Ann Htg Wind 99% Condns WS=>MCDB, ! Name
  -14.5,                                  ! Maximum Dry-Bulb Temperature {C}
  0,                                      ! Daily Dry-Bulb Temperature Range {deltaC}
  -14.5,                                  ! Humidity Indicating Conditions at Maximum Dry-Bulb {BasedOnField A3}
  98088,                                  ! Barometric Pressure {Pa}
  14.4,                                   ! Wind Speed {m/s}
  170,                                    ! Wind Direction {deg}
  0,                                      ! Sky Clearness
  0,                                      ! Rain Indicator
  0,                                      ! Snow Indicator
  21,                                     ! Day of Month
  1,                                      ! Month
  WinterDesignDay,                        ! Day Type
  0,                                      ! Daylight Saving Time Indicator
  Wetbulb,                                ! Humidity Indicating Type
  ,                                       ! Humidity Indicating Day Schedule Name
  DefaultMultipliers,                     ! Dry-Bulb Temperature Range Modifier Type
  ,                                       ! Dry-Bulb Temperature Range Modifier Schedule Name
  ASHRAEClearSky;                         ! Solar Model Indicator

OS:ComponentData,
  {6e7974d7-3e89-4a53-97a9-07493ffb334c}, ! Handle
  Component Data 1,                       ! Name
  {f7d22733-d4b9-43b5-8f79-ef70b2b1e11e}, ! UUID
  {1bb5d733-5fbc-4882-a9b7-fe47ccb5128f}, ! Version UUID
  1366308188,                             ! Creation Timestamp
  1366308188,                             ! Version Timestamp
  {428d5a83-e224-4a63-8451-2ea6b4de8f73}; ! Name of Object 1

