
OS:Version,
  {aec6d95b-7ee0-404e-9ab7-fea86e60765e}, ! Handle
  0.9.3;                                  ! Version Identifier

OS:SizingPeriod:DesignDay,
  {5b68e41b-da8f-4255-a448-0711c080d8d6}, ! Handle
  Lufkin Angelina Co Ann Hum_n 99.6% Condns DP=>MCDB, ! Name
  0.7,                                    ! Maximum Dry-Bulb Temperature {C}
  0,                                      ! Daily Dry-Bulb Temperature Range {deltaC}
  -10.9,                                  ! Humidity Indicating Conditions at Maximum Dry-Bulb {BasedOnField A3}
  100296,                                 ! Barometric Pressure {Pa}
  2.1,                                    ! Wind Speed {m/s}
  340,                                    ! Wind Direction {deg}
  0,                                      ! Sky Clearness
  0,                                      ! Rain Indicator
  0,                                      ! Snow Indicator
  21,                                     ! Day of Month
  1,                                      ! Month
  WinterDesignDay,                        ! Day Type
  0,                                      ! Daylight Saving Time Indicator
  Dewpoint,                               ! Humidity Indicating Type
  ,                                       ! Humidity Indicating Day Schedule Name
  DefaultMultipliers,                     ! Dry-Bulb Temperature Range Modifier Type
  ,                                       ! Dry-Bulb Temperature Range Modifier Schedule Name
  ASHRAEClearSky;                         ! Solar Model Indicator

OS:ComponentData,
  {37534513-e9b2-42b9-9872-3aab6dd3bbae}, ! Handle
  Component Data 1,                       ! Name
  {5112b88b-d615-4469-81a9-35948bf7420d}, ! UUID
  {08997c5b-25d4-4482-8a60-0a3ac19927e1}, ! Version UUID
  1366310807,                             ! Creation Timestamp
  1366310807,                             ! Version Timestamp
  {5b68e41b-da8f-4255-a448-0711c080d8d6}; ! Name of Object 1

