
OS:Version,
  {f5ab5044-d341-4c71-bdad-ce7ba0cc24fc}, ! Handle
  0.9.3;                                  ! Version Identifier

OS:SizingPeriod:DesignDay,
  {e1ba044a-3dbe-48af-a633-7bb67bd799b1}, ! Handle
  Baudette International Ap Ann Clg 1% Condns WB=>MDB, ! Name
  26.7,                                   ! Maximum Dry-Bulb Temperature {C}
  11.5,                                   ! Daily Dry-Bulb Temperature Range {deltaC}
  21.8,                                   ! Humidity Indicating Conditions at Maximum Dry-Bulb {BasedOnField A3}
  97423,                                  ! Barometric Pressure {Pa}
  5,                                      ! Wind Speed {m/s}
  200,                                    ! Wind Direction {deg}
  0,                                      ! Sky Clearness
  0,                                      ! Rain Indicator
  0,                                      ! Snow Indicator
  21,                                     ! Day of Month
  7,                                      ! Month
  SummerDesignDay,                        ! Day Type
  0,                                      ! Daylight Saving Time Indicator
  Wetbulb,                                ! Humidity Indicating Type
  ,                                       ! Humidity Indicating Day Schedule Name
  DefaultMultipliers,                     ! Dry-Bulb Temperature Range Modifier Type
  ,                                       ! Dry-Bulb Temperature Range Modifier Schedule Name
  ASHRAETau,                              ! Solar Model Indicator
  ,                                       ! Beam Solar Day Schedule Name
  ,                                       ! Diffuse Solar Day Schedule Name
  0.397,                                  ! ASHRAE Taub {dimensionless}
  2.236;                                  ! ASHRAE Taud {dimensionless}

OS:ComponentData,
  {bbe6462d-da9e-41c9-9872-3656c079fe90}, ! Handle
  Component Data 1,                       ! Name
  {8969676f-8dcf-42c6-864b-7839f7b81af3}, ! UUID
  {979b5a12-6314-47d8-acd5-6498f3c5b405}, ! Version UUID
  1366308154,                             ! Creation Timestamp
  1366308154,                             ! Version Timestamp
  {e1ba044a-3dbe-48af-a633-7bb67bd799b1}; ! Name of Object 1

