
OS:Version,
  {ea26b400-3688-47b9-ad18-70a9970b9d03}, ! Handle
  0.9.3;                                  ! Version Identifier

OS:SizingPeriod:DesignDay,
  {49f985ce-3552-4c83-85af-6098abdfb7b7}, ! Handle
  Fullerton Municipal Ann Hum_n 99% Condns DP=>MCDB, ! Name
  17.4,                                   ! Maximum Dry-Bulb Temperature {C}
  0,                                      ! Daily Dry-Bulb Temperature Range {deltaC}
  -7.5,                                   ! Humidity Indicating Conditions at Maximum Dry-Bulb {BasedOnField A3}
  100977,                                 ! Barometric Pressure {Pa}
  0.6,                                    ! Wind Speed {m/s}
  90,                                     ! Wind Direction {deg}
  0,                                      ! Sky Clearness
  0,                                      ! Rain Indicator
  0,                                      ! Snow Indicator
  21,                                     ! Day of Month
  12,                                     ! Month
  WinterDesignDay,                        ! Day Type
  0,                                      ! Daylight Saving Time Indicator
  Dewpoint,                               ! Humidity Indicating Type
  ,                                       ! Humidity Indicating Day Schedule Name
  DefaultMultipliers,                     ! Dry-Bulb Temperature Range Modifier Type
  ,                                       ! Dry-Bulb Temperature Range Modifier Schedule Name
  ASHRAEClearSky;                         ! Solar Model Indicator

OS:ComponentData,
  {1061a8ee-0fd6-43f2-8cc2-b40dfe212ef3}, ! Handle
  Component Data 1,                       ! Name
  {7b8f6810-cdfd-46c6-b521-7813db480d71}, ! UUID
  {468952e3-884b-47d7-b904-5fa08a830bbf}, ! Version UUID
  1366306442,                             ! Creation Timestamp
  1366306442,                             ! Version Timestamp
  {49f985ce-3552-4c83-85af-6098abdfb7b7}; ! Name of Object 1

