
OS:Version,
  {bad321bd-fbb9-4ce4-91aa-4a5dd69b7741}, ! Handle
  0.9.3;                                  ! Version Identifier

OS:SizingPeriod:DesignDay,
  {444565ef-ea72-4505-9800-4e91ffc718ad}, ! Handle
  Craig Moffat Ann Clg .4% Condns DB=>MWB, ! Name
  32.3,                                   ! Maximum Dry-Bulb Temperature {C}
  20.7,                                   ! Daily Dry-Bulb Temperature Range {deltaC}
  14.5,                                   ! Humidity Indicating Conditions at Maximum Dry-Bulb {BasedOnField A3}
  80338,                                  ! Barometric Pressure {Pa}
  3.8,                                    ! Wind Speed {m/s}
  290,                                    ! Wind Direction {deg}
  0,                                      ! Sky Clearness
  0,                                      ! Rain Indicator
  0,                                      ! Snow Indicator
  21,                                     ! Day of Month
  7,                                      ! Month
  SummerDesignDay,                        ! Day Type
  0,                                      ! Daylight Saving Time Indicator
  Wetbulb,                                ! Humidity Indicating Type
  ,                                       ! Humidity Indicating Day Schedule Name
  DefaultMultipliers,                     ! Dry-Bulb Temperature Range Modifier Type
  ,                                       ! Dry-Bulb Temperature Range Modifier Schedule Name
  ASHRAETau,                              ! Solar Model Indicator
  ,                                       ! Beam Solar Day Schedule Name
  ,                                       ! Diffuse Solar Day Schedule Name
  0.372,                                  ! ASHRAE Taub {dimensionless}
  2.215;                                  ! ASHRAE Taud {dimensionless}

OS:ComponentData,
  {26c43d10-e52e-4754-ba53-f5dd99f3c3e0}, ! Handle
  Component Data 1,                       ! Name
  {dac4f66f-c421-44cf-98fa-4c1e556b418c}, ! UUID
  {d5d15165-8409-4677-a8d6-0ed3b507b237}, ! Version UUID
  1366306671,                             ! Creation Timestamp
  1366306671,                             ! Version Timestamp
  {444565ef-ea72-4505-9800-4e91ffc718ad}; ! Name of Object 1

