
OS:Version,
  {e4114d56-e6b2-4a0a-8d37-4f94e5d4f2a3}, ! Handle
  0.9.3;                                  ! Version Identifier

OS:SizingPeriod:DesignDay,
  {a894febd-ddf8-42d3-9d8d-3b207171335f}, ! Handle
  Fullerton Municipal Ann Clg 2% Condns DP=>MDB, ! Name
  24.2,                                   ! Maximum Dry-Bulb Temperature {C}
  10.5,                                   ! Daily Dry-Bulb Temperature Range {deltaC}
  18,                                     ! Humidity Indicating Conditions at Maximum Dry-Bulb {BasedOnField A3}
  100977,                                 ! Barometric Pressure {Pa}
  3.2,                                    ! Wind Speed {m/s}
  200,                                    ! Wind Direction {deg}
  0,                                      ! Sky Clearness
  0,                                      ! Rain Indicator
  0,                                      ! Snow Indicator
  21,                                     ! Day of Month
  8,                                      ! Month
  SummerDesignDay,                        ! Day Type
  0,                                      ! Daylight Saving Time Indicator
  Dewpoint,                               ! Humidity Indicating Type
  ,                                       ! Humidity Indicating Day Schedule Name
  DefaultMultipliers,                     ! Dry-Bulb Temperature Range Modifier Type
  ,                                       ! Dry-Bulb Temperature Range Modifier Schedule Name
  ASHRAETau,                              ! Solar Model Indicator
  ,                                       ! Beam Solar Day Schedule Name
  ,                                       ! Diffuse Solar Day Schedule Name
  0.453,                                  ! ASHRAE Taub {dimensionless}
  2.056;                                  ! ASHRAE Taud {dimensionless}

OS:ComponentData,
  {c62aa560-aa50-47c8-85f5-c53b3712cb3c}, ! Handle
  Component Data 1,                       ! Name
  {a6ba4fe3-e6f2-4f4d-b517-eacfa1aeb589}, ! UUID
  {80a1d0b4-b9d6-4334-afdd-f40e36b7486d}, ! Version UUID
  1366306443,                             ! Creation Timestamp
  1366306443,                             ! Version Timestamp
  {a894febd-ddf8-42d3-9d8d-3b207171335f}; ! Name of Object 1

