
OS:Version,
  {5fa6e934-fb7a-4a76-a428-43eebdaa07af}, ! Handle
  0.9.3;                                  ! Version Identifier

OS:SizingPeriod:DesignDay,
  {c1af2150-840b-4819-8546-fc349bf1d645}, ! Handle
  Lancaster Gen Wm Fox Field Ann Htg Wind 99% Condns WS=>MCDB, ! Name
  10,                                     ! Maximum Dry-Bulb Temperature {C}
  0,                                      ! Daily Dry-Bulb Temperature Range {deltaC}
  10,                                     ! Humidity Indicating Conditions at Maximum Dry-Bulb {BasedOnField A3}
  93048,                                  ! Barometric Pressure {Pa}
  12.7,                                   ! Wind Speed {m/s}
  270,                                    ! Wind Direction {deg}
  0,                                      ! Sky Clearness
  0,                                      ! Rain Indicator
  0,                                      ! Snow Indicator
  21,                                     ! Day of Month
  12,                                     ! Month
  WinterDesignDay,                        ! Day Type
  0,                                      ! Daylight Saving Time Indicator
  Wetbulb,                                ! Humidity Indicating Type
  ,                                       ! Humidity Indicating Day Schedule Name
  DefaultMultipliers,                     ! Dry-Bulb Temperature Range Modifier Type
  ,                                       ! Dry-Bulb Temperature Range Modifier Schedule Name
  ASHRAEClearSky;                         ! Solar Model Indicator

