
OS:Version,
  {48e14d6d-24af-47c2-a22f-f1c7daa9d4b2}, ! Handle
  0.9.3;                                  ! Version Identifier

OS:SizingPeriod:DesignDay,
  {2c5eff41-3174-41df-a5d5-ae25b9a5337b}, ! Handle
  Casper Ann Htg 99% Condns DB,           ! Name
  -19,                                    ! Maximum Dry-Bulb Temperature {C}
  0,                                      ! Daily Dry-Bulb Temperature Range {deltaC}
  -19,                                    ! Humidity Indicating Conditions at Maximum Dry-Bulb {BasedOnField A3}
  83400,                                  ! Barometric Pressure {Pa}
  3.8,                                    ! Wind Speed {m/s}
  40,                                     ! Wind Direction {deg}
  0,                                      ! Sky Clearness
  0,                                      ! Rain Indicator
  0,                                      ! Snow Indicator
  21,                                     ! Day of Month
  12,                                     ! Month
  WinterDesignDay,                        ! Day Type
  0,                                      ! Daylight Saving Time Indicator
  Wetbulb,                                ! Humidity Indicating Type
  ,                                       ! Humidity Indicating Day Schedule Name
  DefaultMultipliers,                     ! Dry-Bulb Temperature Range Modifier Type
  ,                                       ! Dry-Bulb Temperature Range Modifier Schedule Name
  ASHRAEClearSky;                         ! Solar Model Indicator

OS:ComponentData,
  {9c61b51d-fcb1-4754-aa88-2cbcb7d510ee}, ! Handle
  Component Data 1,                       ! Name
  {22b43b4f-a994-4664-9b9a-bb29c6d86a08}, ! UUID
  {8a12fb19-3ef3-4ac7-a9ac-c7f0e13c3116}, ! Version UUID
  1366311682,                             ! Creation Timestamp
  1366311682,                             ! Version Timestamp
  {2c5eff41-3174-41df-a5d5-ae25b9a5337b}; ! Name of Object 1

