
OS:Version,
  {f236ce9a-fef6-4080-ab51-671560567357}, ! Handle
  0.9.3;                                  ! Version Identifier

OS:SizingPeriod:DesignDay,
  {6988e1e0-2d73-4bff-90d5-9735c968be23}, ! Handle
  LITTLE_ROCK Ann Hum_n 99.6% Condns DP=>MCDB, ! Name
  -6.1,                                   ! Maximum Dry-Bulb Temperature {C}
  0,                                      ! Daily Dry-Bulb Temperature Range {deltaC}
  -16,                                    ! Humidity Indicating Conditions at Maximum Dry-Bulb {BasedOnField A3}
  100356,                                 ! Barometric Pressure {Pa}
  2.3,                                    ! Wind Speed {m/s}
  350,                                    ! Wind Direction {deg}
  0,                                      ! Sky Clearness
  0,                                      ! Rain Indicator
  0,                                      ! Snow Indicator
  21,                                     ! Day of Month
  1,                                      ! Month
  WinterDesignDay,                        ! Day Type
  0,                                      ! Daylight Saving Time Indicator
  Dewpoint,                               ! Humidity Indicating Type
  ,                                       ! Humidity Indicating Day Schedule Name
  DefaultMultipliers,                     ! Dry-Bulb Temperature Range Modifier Type
  ,                                       ! Dry-Bulb Temperature Range Modifier Schedule Name
  ASHRAEClearSky;                         ! Solar Model Indicator

OS:ComponentData,
  {290220d5-240b-4968-ad87-eec8a8bd5bb8}, ! Handle
  Component Data 1,                       ! Name
  {a0a8ab40-e74c-4539-a0d2-170ea2ce28af}, ! UUID
  {9c2cd16b-b44b-4bfe-b453-34a39b03bed0}, ! Version UUID
  1366306231,                             ! Creation Timestamp
  1366306231,                             ! Version Timestamp
  {6988e1e0-2d73-4bff-90d5-9735c968be23}; ! Name of Object 1

