
OS:Version,
  {9689c0b3-25f6-49b8-bdd7-bb9bf1bdb477}, ! Handle
  0.9.3;                                  ! Version Identifier

OS:SizingPeriod:DesignDay,
  {3ec6a466-ef7d-4758-b1af-74d080e8ab45}, ! Handle
  Abilene Dyess Afb Ann Clg 1% Condns Enth=>MDB, ! Name
  31.9,                                   ! Maximum Dry-Bulb Temperature {C}
  12.4,                                   ! Daily Dry-Bulb Temperature Range {deltaC}
  76100,                                  ! Humidity Indicating Conditions at Maximum Dry-Bulb {BasedOnField A3}
  94947,                                  ! Barometric Pressure {Pa}
  4.5,                                    ! Wind Speed {m/s}
  170,                                    ! Wind Direction {deg}
  0,                                      ! Sky Clearness
  0,                                      ! Rain Indicator
  0,                                      ! Snow Indicator
  21,                                     ! Day of Month
  7,                                      ! Month
  SummerDesignDay,                        ! Day Type
  0,                                      ! Daylight Saving Time Indicator
  Enthalpy,                               ! Humidity Indicating Type
  ,                                       ! Humidity Indicating Day Schedule Name
  DefaultMultipliers,                     ! Dry-Bulb Temperature Range Modifier Type
  ,                                       ! Dry-Bulb Temperature Range Modifier Schedule Name
  ASHRAETau,                              ! Solar Model Indicator
  ,                                       ! Beam Solar Day Schedule Name
  ,                                       ! Diffuse Solar Day Schedule Name
  0.427,                                  ! ASHRAE Taub {dimensionless}
  2.168;                                  ! ASHRAE Taud {dimensionless}

OS:ComponentData,
  {a5888871-f8ff-4545-a9b4-5def7338891b}, ! Handle
  Component Data 1,                       ! Name
  {4620fa60-eb7c-4c21-9fed-1e4f7abbf498}, ! UUID
  {bf2915e2-eb6a-43b5-ae67-b90bff26534a}, ! Version UUID
  1366310548,                             ! Creation Timestamp
  1366310548,                             ! Version Timestamp
  {3ec6a466-ef7d-4758-b1af-74d080e8ab45}; ! Name of Object 1

