
OS:Version,
  {749c0391-4cbb-4d82-89bb-90633a4f0c15}, ! Handle
  0.9.3;                                  ! Version Identifier

OS:SizingPeriod:DesignDay,
  {95414c69-880f-4118-83e3-1fc6b057cd9a}, ! Handle
  Cut Bank Muni Ap Ann Clg .4% Condns DP=>MDB, ! Name
  19.5,                                   ! Maximum Dry-Bulb Temperature {C}
  15.1,                                   ! Daily Dry-Bulb Temperature Range {deltaC}
  12.8,                                   ! Humidity Indicating Conditions at Maximum Dry-Bulb {BasedOnField A3}
  88037,                                  ! Barometric Pressure {Pa}
  5.8,                                    ! Wind Speed {m/s}
  260,                                    ! Wind Direction {deg}
  0,                                      ! Sky Clearness
  0,                                      ! Rain Indicator
  0,                                      ! Snow Indicator
  21,                                     ! Day of Month
  7,                                      ! Month
  SummerDesignDay,                        ! Day Type
  0,                                      ! Daylight Saving Time Indicator
  Dewpoint,                               ! Humidity Indicating Type
  ,                                       ! Humidity Indicating Day Schedule Name
  DefaultMultipliers,                     ! Dry-Bulb Temperature Range Modifier Type
  ,                                       ! Dry-Bulb Temperature Range Modifier Schedule Name
  ASHRAETau,                              ! Solar Model Indicator
  ,                                       ! Beam Solar Day Schedule Name
  ,                                       ! Diffuse Solar Day Schedule Name
  0.368,                                  ! ASHRAE Taub {dimensionless}
  2.249;                                  ! ASHRAE Taud {dimensionless}

