
OS:Version,
  {0b3abd26-f0b1-4a76-acb4-e1f22ca75768}, ! Handle
  0.9.3;                                  ! Version Identifier

OS:SizingPeriod:DesignDay,
  {d7fac69c-e9d6-43e1-9027-138da43eb34e}, ! Handle
  Cut Bank Muni Ap Ann Clg .4% Condns DP=>MDB, ! Name
  19.5,                                   ! Maximum Dry-Bulb Temperature {C}
  15.1,                                   ! Daily Dry-Bulb Temperature Range {deltaC}
  12.8,                                   ! Humidity Indicating Conditions at Maximum Dry-Bulb {BasedOnField A3}
  88037,                                  ! Barometric Pressure {Pa}
  5.8,                                    ! Wind Speed {m/s}
  260,                                    ! Wind Direction {deg}
  0,                                      ! Sky Clearness
  0,                                      ! Rain Indicator
  0,                                      ! Snow Indicator
  21,                                     ! Day of Month
  7,                                      ! Month
  SummerDesignDay,                        ! Day Type
  0,                                      ! Daylight Saving Time Indicator
  Dewpoint,                               ! Humidity Indicating Type
  ,                                       ! Humidity Indicating Day Schedule Name
  DefaultMultipliers,                     ! Dry-Bulb Temperature Range Modifier Type
  ,                                       ! Dry-Bulb Temperature Range Modifier Schedule Name
  ASHRAETau,                              ! Solar Model Indicator
  ,                                       ! Beam Solar Day Schedule Name
  ,                                       ! Diffuse Solar Day Schedule Name
  0.368,                                  ! ASHRAE Taub {dimensionless}
  2.249;                                  ! ASHRAE Taud {dimensionless}

OS:ComponentData,
  {c0d50c70-a0fe-4564-b694-5049086107bb}, ! Handle
  Component Data 1,                       ! Name
  {da4d3e7c-92c0-4112-aeb2-a5cce324dbaa}, ! UUID
  {725d0ef7-936a-4fe1-b45e-2dc75d712ab5}, ! Version UUID
  1366308746,                             ! Creation Timestamp
  1366308746,                             ! Version Timestamp
  {d7fac69c-e9d6-43e1-9027-138da43eb34e}; ! Name of Object 1

