
OS:Version,
  {6af12dcd-77e9-430f-8f76-5ae9531dd2a8}, ! Handle
  0.9.3;                                  ! Version Identifier

OS:SizingPeriod:DesignDay,
  {8cfb0986-1d92-4941-9f41-96b5e3633d19}, ! Handle
  Harrisburg Capital City Arpt Ann Clg .4% Condns WB=>MDB, ! Name
  30.4,                                   ! Maximum Dry-Bulb Temperature {C}
  10.8,                                   ! Daily Dry-Bulb Temperature Range {deltaC}
  24.7,                                   ! Humidity Indicating Conditions at Maximum Dry-Bulb {BasedOnField A3}
  100082,                                 ! Barometric Pressure {Pa}
  3.8,                                    ! Wind Speed {m/s}
  300,                                    ! Wind Direction {deg}
  0,                                      ! Sky Clearness
  0,                                      ! Rain Indicator
  0,                                      ! Snow Indicator
  21,                                     ! Day of Month
  7,                                      ! Month
  SummerDesignDay,                        ! Day Type
  0,                                      ! Daylight Saving Time Indicator
  Wetbulb,                                ! Humidity Indicating Type
  ,                                       ! Humidity Indicating Day Schedule Name
  DefaultMultipliers,                     ! Dry-Bulb Temperature Range Modifier Type
  ,                                       ! Dry-Bulb Temperature Range Modifier Schedule Name
  ASHRAETau,                              ! Solar Model Indicator
  ,                                       ! Beam Solar Day Schedule Name
  ,                                       ! Diffuse Solar Day Schedule Name
  0.519,                                  ! ASHRAE Taub {dimensionless}
  1.838;                                  ! ASHRAE Taud {dimensionless}

OS:ComponentData,
  {3552ed5f-ba91-46e8-8804-2265ed508b92}, ! Handle
  Component Data 1,                       ! Name
  {1fe92afd-a166-4e19-b018-4bc0516e8ee2}, ! UUID
  {ea0958ac-3fec-41cb-b094-32cd8e73a68d}, ! Version UUID
  1366310188,                             ! Creation Timestamp
  1366310188,                             ! Version Timestamp
  {8cfb0986-1d92-4941-9f41-96b5e3633d19}; ! Name of Object 1

