
OS:Version,
  {d25a06b9-c502-43b0-a788-9872487ca3a8}, ! Handle
  0.9.3;                                  ! Version Identifier

OS:SizingPeriod:DesignDay,
  {618d8912-3809-45e1-8290-127dfd5a2006}, ! Handle
  COLUMBIA Ann Clg 1% Condns Enth=>MDB,   ! Name
  31.4,                                   ! Maximum Dry-Bulb Temperature {C}
  11.1,                                   ! Daily Dry-Bulb Temperature Range {deltaC}
  77500,                                  ! Humidity Indicating Conditions at Maximum Dry-Bulb {BasedOnField A3}
  100499,                                 ! Barometric Pressure {Pa}
  3.9,                                    ! Wind Speed {m/s}
  240,                                    ! Wind Direction {deg}
  0,                                      ! Sky Clearness
  0,                                      ! Rain Indicator
  0,                                      ! Snow Indicator
  21,                                     ! Day of Month
  7,                                      ! Month
  SummerDesignDay,                        ! Day Type
  0,                                      ! Daylight Saving Time Indicator
  Enthalpy,                               ! Humidity Indicating Type
  ,                                       ! Humidity Indicating Day Schedule Name
  DefaultMultipliers,                     ! Dry-Bulb Temperature Range Modifier Type
  ,                                       ! Dry-Bulb Temperature Range Modifier Schedule Name
  ASHRAETau,                              ! Solar Model Indicator
  ,                                       ! Beam Solar Day Schedule Name
  ,                                       ! Diffuse Solar Day Schedule Name
  0.566,                                  ! ASHRAE Taub {dimensionless}
  1.764;                                  ! ASHRAE Taud {dimensionless}

OS:ComponentData,
  {691f47d9-a256-4457-afb1-93ae5218d398}, ! Handle
  Component Data 1,                       ! Name
  {7ec25b32-b1c8-45ed-b1ba-7355c22c6482}, ! UUID
  {48546535-ce98-407b-9980-835c804b45ee}, ! Version UUID
  1366310338,                             ! Creation Timestamp
  1366310338,                             ! Version Timestamp
  {618d8912-3809-45e1-8290-127dfd5a2006}; ! Name of Object 1

