
OS:Version,
  {45833f0c-ce28-4c9e-b40a-0057fa8bf0bd}, ! Handle
  0.9.3;                                  ! Version Identifier

OS:SizingPeriod:DesignDay,
  {fc9b9be0-061c-410f-afbd-c824e465936f}, ! Handle
  DAYTON Ann Clg 1% Condns DB=>MWB,       ! Name
  31.8,                                   ! Maximum Dry-Bulb Temperature {C}
  11,                                     ! Daily Dry-Bulb Temperature Range {deltaC}
  23.1,                                   ! Humidity Indicating Conditions at Maximum Dry-Bulb {BasedOnField A3}
  97703,                                  ! Barometric Pressure {Pa}
  3.9,                                    ! Wind Speed {m/s}
  240,                                    ! Wind Direction {deg}
  0,                                      ! Sky Clearness
  0,                                      ! Rain Indicator
  0,                                      ! Snow Indicator
  21,                                     ! Day of Month
  7,                                      ! Month
  SummerDesignDay,                        ! Day Type
  0,                                      ! Daylight Saving Time Indicator
  Wetbulb,                                ! Humidity Indicating Type
  ,                                       ! Humidity Indicating Day Schedule Name
  DefaultMultipliers,                     ! Dry-Bulb Temperature Range Modifier Type
  ,                                       ! Dry-Bulb Temperature Range Modifier Schedule Name
  ASHRAETau,                              ! Solar Model Indicator
  ,                                       ! Beam Solar Day Schedule Name
  ,                                       ! Diffuse Solar Day Schedule Name
  0.484,                                  ! ASHRAE Taub {dimensionless}
  1.94;                                   ! ASHRAE Taud {dimensionless}

OS:ComponentData,
  {3881ad72-9176-4fab-be8a-564c21fca1aa}, ! Handle
  Component Data 1,                       ! Name
  {b95199ef-07bd-4b0d-961d-680239d0f79e}, ! UUID
  {97c9a74b-e319-4223-bddf-02a5f6ba40f5}, ! Version UUID
  1366309817,                             ! Creation Timestamp
  1366309817,                             ! Version Timestamp
  {fc9b9be0-061c-410f-afbd-c824e465936f}; ! Name of Object 1

