
OS:Version,
  {36e31db7-adda-4620-bef6-f28b60edde71}, ! Handle
  0.9.3;                                  ! Version Identifier

OS:SizingPeriod:DesignDay,
  {60663d9b-430f-4f65-9f54-8a13133720cc}, ! Handle
  JACKSONVILLE Ann Hum_n 99.6% Condns DP=>MCDB, ! Name
  3.8,                                    ! Maximum Dry-Bulb Temperature {C}
  0,                                      ! Daily Dry-Bulb Temperature Range {deltaC}
  -8.9,                                   ! Humidity Indicating Conditions at Maximum Dry-Bulb {BasedOnField A3}
  101217,                                 ! Barometric Pressure {Pa}
  1.9,                                    ! Wind Speed {m/s}
  320,                                    ! Wind Direction {deg}
  0,                                      ! Sky Clearness
  0,                                      ! Rain Indicator
  0,                                      ! Snow Indicator
  21,                                     ! Day of Month
  1,                                      ! Month
  WinterDesignDay,                        ! Day Type
  0,                                      ! Daylight Saving Time Indicator
  Dewpoint,                               ! Humidity Indicating Type
  ,                                       ! Humidity Indicating Day Schedule Name
  DefaultMultipliers,                     ! Dry-Bulb Temperature Range Modifier Type
  ,                                       ! Dry-Bulb Temperature Range Modifier Schedule Name
  ASHRAEClearSky;                         ! Solar Model Indicator

OS:ComponentData,
  {7a8fba0f-6a16-4e5a-bdbb-a7cf3b1e4894}, ! Handle
  Component Data 1,                       ! Name
  {c0f4cd2e-bede-4f37-9c7f-535c3479de0b}, ! UUID
  {575d8e39-b62c-4e7b-85ad-66dcb64b1cdc}, ! Version UUID
  1366306816,                             ! Creation Timestamp
  1366306816,                             ! Version Timestamp
  {60663d9b-430f-4f65-9f54-8a13133720cc}; ! Name of Object 1

