
OS:Version,
  {72284bef-1dd0-43fd-b62d-925852dff266}, ! Handle
  0.9.3;                                  ! Version Identifier

OS:SizingPeriod:DesignDay,
  {badd544c-9033-47c8-96f6-320570513e6b}, ! Handle
  Joslin Fld Magic Va  Twin Fal Ann Clg 2% Condns WB=>MDB, ! Name
  29.1,                                   ! Maximum Dry-Bulb Temperature {C}
  15.7,                                   ! Daily Dry-Bulb Temperature Range {deltaC}
  17.7,                                   ! Humidity Indicating Conditions at Maximum Dry-Bulb {BasedOnField A3}
  87716,                                  ! Barometric Pressure {Pa}
  4,                                      ! Wind Speed {m/s}
  320,                                    ! Wind Direction {deg}
  0,                                      ! Sky Clearness
  0,                                      ! Rain Indicator
  0,                                      ! Snow Indicator
  21,                                     ! Day of Month
  7,                                      ! Month
  SummerDesignDay,                        ! Day Type
  0,                                      ! Daylight Saving Time Indicator
  Wetbulb,                                ! Humidity Indicating Type
  ,                                       ! Humidity Indicating Day Schedule Name
  DefaultMultipliers,                     ! Dry-Bulb Temperature Range Modifier Type
  ,                                       ! Dry-Bulb Temperature Range Modifier Schedule Name
  ASHRAETau,                              ! Solar Model Indicator
  ,                                       ! Beam Solar Day Schedule Name
  ,                                       ! Diffuse Solar Day Schedule Name
  0.42,                                   ! ASHRAE Taub {dimensionless}
  1.979;                                  ! ASHRAE Taud {dimensionless}

OS:ComponentData,
  {ad17232a-744b-461b-a643-c51f02b3bea4}, ! Handle
  Component Data 1,                       ! Name
  {7603051f-c669-42ac-961d-68ef19c55933}, ! UUID
  {b9516712-ac46-4e7c-a1f2-bfa9d95c7b57}, ! Version UUID
  1366307316,                             ! Creation Timestamp
  1366307316,                             ! Version Timestamp
  {badd544c-9033-47c8-96f6-320570513e6b}; ! Name of Object 1

