
OS:Version,
  {a3804955-9dc2-4d1e-959b-44d261462220}, ! Handle
  0.9.3;                                  ! Version Identifier

OS:SizingPeriod:DesignDay,
  {8fc0a8de-2bc4-47b1-bd89-01eaeb563f11}, ! Handle
  Aurora State Ann Hum_n 99% Condns DP=>MCDB, ! Name
  4.4,                                    ! Maximum Dry-Bulb Temperature {C}
  0,                                      ! Daily Dry-Bulb Temperature Range {deltaC}
  -5.9,                                   ! Humidity Indicating Conditions at Maximum Dry-Bulb {BasedOnField A3}
  100606,                                 ! Barometric Pressure {Pa}
  0.8,                                    ! Wind Speed {m/s}
  0,                                      ! Wind Direction {deg}
  0,                                      ! Sky Clearness
  0,                                      ! Rain Indicator
  0,                                      ! Snow Indicator
  21,                                     ! Day of Month
  12,                                     ! Month
  WinterDesignDay,                        ! Day Type
  0,                                      ! Daylight Saving Time Indicator
  Dewpoint,                               ! Humidity Indicating Type
  ,                                       ! Humidity Indicating Day Schedule Name
  DefaultMultipliers,                     ! Dry-Bulb Temperature Range Modifier Type
  ,                                       ! Dry-Bulb Temperature Range Modifier Schedule Name
  ASHRAEClearSky;                         ! Solar Model Indicator

OS:ComponentData,
  {9d554b25-a20c-4553-a480-faca0ce7f1ef}, ! Handle
  Component Data 1,                       ! Name
  {b94731e9-c611-472f-8dc1-abe82c1e4818}, ! UUID
  {8f55d031-a309-443d-bb1d-39af5b815196}, ! Version UUID
  1366309981,                             ! Creation Timestamp
  1366309981,                             ! Version Timestamp
  {8fc0a8de-2bc4-47b1-bd89-01eaeb563f11}; ! Name of Object 1

