
OS:Version,
  {42268a3e-63ed-49bd-a0c1-e00e0283088e}, ! Handle
  0.9.3;                                  ! Version Identifier

OS:SizingPeriod:DesignDay,
  {05710fbc-2f12-4e13-a752-2b37120c7416}, ! Handle
  Huntingburg Ann Clg 1% Condns WB=>MDB,  ! Name
  30.2,                                   ! Maximum Dry-Bulb Temperature {C}
  10.4,                                   ! Daily Dry-Bulb Temperature Range {deltaC}
  25.5,                                   ! Humidity Indicating Conditions at Maximum Dry-Bulb {BasedOnField A3}
  99406,                                  ! Barometric Pressure {Pa}
  3.9,                                    ! Wind Speed {m/s}
  210,                                    ! Wind Direction {deg}
  0,                                      ! Sky Clearness
  0,                                      ! Rain Indicator
  0,                                      ! Snow Indicator
  21,                                     ! Day of Month
  7,                                      ! Month
  SummerDesignDay,                        ! Day Type
  0,                                      ! Daylight Saving Time Indicator
  Wetbulb,                                ! Humidity Indicating Type
  ,                                       ! Humidity Indicating Day Schedule Name
  DefaultMultipliers,                     ! Dry-Bulb Temperature Range Modifier Type
  ,                                       ! Dry-Bulb Temperature Range Modifier Schedule Name
  ASHRAETau,                              ! Solar Model Indicator
  ,                                       ! Beam Solar Day Schedule Name
  ,                                       ! Diffuse Solar Day Schedule Name
  0.504,                                  ! ASHRAE Taub {dimensionless}
  1.89;                                   ! ASHRAE Taud {dimensionless}

OS:ComponentData,
  {b30550f4-a17b-48d4-87cf-ea8ab73bc2c3}, ! Handle
  Component Data 1,                       ! Name
  {39e17c43-2d3a-4bfb-a440-3cdbda666c50}, ! UUID
  {ddce63aa-b808-4895-9a66-1b32a90619e4}, ! Version UUID
  1366307455,                             ! Creation Timestamp
  1366307455,                             ! Version Timestamp
  {05710fbc-2f12-4e13-a752-2b37120c7416}; ! Name of Object 1

