
OS:Version,
  {3ecd5882-fb7d-4f9a-bb2c-aa9a5d49d3ac}, ! Handle
  0.9.3;                                  ! Version Identifier

OS:SizingPeriod:DesignDay,
  {a11d99d1-066a-4b70-ba92-aae9fc337917}, ! Handle
  Houston D W  Hooks Ann Clg 2% Condns WB=>MDB, ! Name
  30.7,                                   ! Maximum Dry-Bulb Temperature {C}
  10.4,                                   ! Daily Dry-Bulb Temperature Range {deltaC}
  26,                                     ! Humidity Indicating Conditions at Maximum Dry-Bulb {BasedOnField A3}
  100774,                                 ! Barometric Pressure {Pa}
  3.1,                                    ! Wind Speed {m/s}
  170,                                    ! Wind Direction {deg}
  0,                                      ! Sky Clearness
  0,                                      ! Rain Indicator
  0,                                      ! Snow Indicator
  21,                                     ! Day of Month
  7,                                      ! Month
  SummerDesignDay,                        ! Day Type
  0,                                      ! Daylight Saving Time Indicator
  Wetbulb,                                ! Humidity Indicating Type
  ,                                       ! Humidity Indicating Day Schedule Name
  DefaultMultipliers,                     ! Dry-Bulb Temperature Range Modifier Type
  ,                                       ! Dry-Bulb Temperature Range Modifier Schedule Name
  ASHRAETau,                              ! Solar Model Indicator
  ,                                       ! Beam Solar Day Schedule Name
  ,                                       ! Diffuse Solar Day Schedule Name
  0.496,                                  ! ASHRAE Taub {dimensionless}
  1.979;                                  ! ASHRAE Taud {dimensionless}

