
OS:Version,
  {346e993d-594d-44bc-848d-e3bec45fd7dd}, ! Handle
  0.9.3;                                  ! Version Identifier

OS:SizingPeriod:DesignDay,
  {238a9e74-0b9a-4d1c-a774-aeec247309d7}, ! Handle
  Dubuque Regional Ap Ann Clg .4% Condns DP=>MDB, ! Name
  28.4,                                   ! Maximum Dry-Bulb Temperature {C}
  10.2,                                   ! Daily Dry-Bulb Temperature Range {deltaC}
  24,                                     ! Humidity Indicating Conditions at Maximum Dry-Bulb {BasedOnField A3}
  97516,                                  ! Barometric Pressure {Pa}
  5.2,                                    ! Wind Speed {m/s}
  190,                                    ! Wind Direction {deg}
  0,                                      ! Sky Clearness
  0,                                      ! Rain Indicator
  0,                                      ! Snow Indicator
  21,                                     ! Day of Month
  7,                                      ! Month
  SummerDesignDay,                        ! Day Type
  0,                                      ! Daylight Saving Time Indicator
  Dewpoint,                               ! Humidity Indicating Type
  ,                                       ! Humidity Indicating Day Schedule Name
  DefaultMultipliers,                     ! Dry-Bulb Temperature Range Modifier Type
  ,                                       ! Dry-Bulb Temperature Range Modifier Schedule Name
  ASHRAETau,                              ! Solar Model Indicator
  ,                                       ! Beam Solar Day Schedule Name
  ,                                       ! Diffuse Solar Day Schedule Name
  0.433,                                  ! ASHRAE Taub {dimensionless}
  2.117;                                  ! ASHRAE Taud {dimensionless}

OS:ComponentData,
  {a6a56c42-4394-4445-839d-e4765bfb1a66}, ! Handle
  Component Data 1,                       ! Name
  {13776f75-92cd-42d3-83de-9065ab8bb82e}, ! UUID
  {9965c287-b410-4449-a42d-e162297c8c41}, ! Version UUID
  1366307184,                             ! Creation Timestamp
  1366307184,                             ! Version Timestamp
  {238a9e74-0b9a-4d1c-a774-aeec247309d7}; ! Name of Object 1

