
OS:Version,
  {453bcdbd-aa7c-4504-9e20-6bf3aedc8116}, ! Handle
  0.9.3;                                  ! Version Identifier

OS:SizingPeriod:DesignDay,
  {34c6702a-0f9b-4e37-afe1-c3c17e8d4fdc}, ! Handle
  GREEN_BAY Ann Clg 2% Condns Enth=>MDB,  ! Name
  26.4,                                   ! Maximum Dry-Bulb Temperature {C}
  11.3,                                   ! Daily Dry-Bulb Temperature Range {deltaC}
  67100,                                  ! Humidity Indicating Conditions at Maximum Dry-Bulb {BasedOnField A3}
  98780,                                  ! Barometric Pressure {Pa}
  5.1,                                    ! Wind Speed {m/s}
  200,                                    ! Wind Direction {deg}
  0,                                      ! Sky Clearness
  0,                                      ! Rain Indicator
  0,                                      ! Snow Indicator
  21,                                     ! Day of Month
  7,                                      ! Month
  SummerDesignDay,                        ! Day Type
  0,                                      ! Daylight Saving Time Indicator
  Enthalpy,                               ! Humidity Indicating Type
  ,                                       ! Humidity Indicating Day Schedule Name
  DefaultMultipliers,                     ! Dry-Bulb Temperature Range Modifier Type
  ,                                       ! Dry-Bulb Temperature Range Modifier Schedule Name
  ASHRAETau,                              ! Solar Model Indicator
  ,                                       ! Beam Solar Day Schedule Name
  ,                                       ! Diffuse Solar Day Schedule Name
  0.432,                                  ! ASHRAE Taub {dimensionless}
  2.118;                                  ! ASHRAE Taud {dimensionless}

OS:ComponentData,
  {0775c272-5522-4641-a0f2-884a1fec2148}, ! Handle
  Component Data 1,                       ! Name
  {5a9e68af-e21e-4bc3-ac35-fdcccb411126}, ! UUID
  {a9311ce7-2f90-496b-b9eb-bf412a0fbb54}, ! Version UUID
  1366311497,                             ! Creation Timestamp
  1366311497,                             ! Version Timestamp
  {34c6702a-0f9b-4e37-afe1-c3c17e8d4fdc}; ! Name of Object 1

