
OS:Version,
  {f439a32d-0260-4662-8fc4-5ba00fd7e536}, ! Handle
  0.9.3;                                  ! Version Identifier

OS:SizingPeriod:DesignDay,
  {fa49e48a-8df7-4242-a071-91f2d71066b2}, ! Handle
  Boise Ann Hum_n 99.6% Condns DP=>MCDB,  ! Name
  -15.7,                                  ! Maximum Dry-Bulb Temperature {C}
  0,                                      ! Daily Dry-Bulb Temperature Range {deltaC}
  -19.6,                                  ! Humidity Indicating Conditions at Maximum Dry-Bulb {BasedOnField A3}
  91257,                                  ! Barometric Pressure {Pa}
  2.3,                                    ! Wind Speed {m/s}
  120,                                    ! Wind Direction {deg}
  0,                                      ! Sky Clearness
  0,                                      ! Rain Indicator
  0,                                      ! Snow Indicator
  21,                                     ! Day of Month
  12,                                     ! Month
  WinterDesignDay,                        ! Day Type
  0,                                      ! Daylight Saving Time Indicator
  Dewpoint,                               ! Humidity Indicating Type
  ,                                       ! Humidity Indicating Day Schedule Name
  DefaultMultipliers,                     ! Dry-Bulb Temperature Range Modifier Type
  ,                                       ! Dry-Bulb Temperature Range Modifier Schedule Name
  ASHRAEClearSky;                         ! Solar Model Indicator

OS:ComponentData,
  {c93d275b-5ca2-4d93-9f9c-814aee31aa6b}, ! Handle
  Component Data 1,                       ! Name
  {88b9098c-f01e-41bb-9624-83c270ba5dc0}, ! UUID
  {31ea0dac-2065-4a20-83d6-b20a527be6bd}, ! Version UUID
  1366307264,                             ! Creation Timestamp
  1366307264,                             ! Version Timestamp
  {fa49e48a-8df7-4242-a071-91f2d71066b2}; ! Name of Object 1

