
OS:Version,
  {fbc3a74a-74f6-4291-af0c-9de53b5c0329}, ! Handle
  0.9.3;                                  ! Version Identifier

OS:SizingPeriod:DesignDay,
  {3748c1d9-ae78-4280-b5c9-2c67447029f0}, ! Handle
  HUNTINGTON Ann Htg Wind 99.6% Condns WS=>MCDB, ! Name
  2.5,                                    ! Maximum Dry-Bulb Temperature {C}
  0,                                      ! Daily Dry-Bulb Temperature Range {deltaC}
  2.5,                                    ! Humidity Indicating Conditions at Maximum Dry-Bulb {BasedOnField A3}
  98299,                                  ! Barometric Pressure {Pa}
  9.3,                                    ! Wind Speed {m/s}
  240,                                    ! Wind Direction {deg}
  0,                                      ! Sky Clearness
  0,                                      ! Rain Indicator
  0,                                      ! Snow Indicator
  21,                                     ! Day of Month
  1,                                      ! Month
  WinterDesignDay,                        ! Day Type
  0,                                      ! Daylight Saving Time Indicator
  Wetbulb,                                ! Humidity Indicating Type
  ,                                       ! Humidity Indicating Day Schedule Name
  DefaultMultipliers,                     ! Dry-Bulb Temperature Range Modifier Type
  ,                                       ! Dry-Bulb Temperature Range Modifier Schedule Name
  ASHRAEClearSky;                         ! Solar Model Indicator

OS:ComponentData,
  {4aadbcad-2431-4305-bcd0-c426bf7a6ff0}, ! Handle
  Component Data 1,                       ! Name
  {70bb4b10-b857-4dc5-879d-3b5be2411c55}, ! UUID
  {37be54b8-04ce-481e-90e6-a439b056f13b}, ! Version UUID
  1366311657,                             ! Creation Timestamp
  1366311657,                             ! Version Timestamp
  {3748c1d9-ae78-4280-b5c9-2c67447029f0}; ! Name of Object 1

