
OS:Version,
  {27225045-1155-4c0c-9fba-56a0e9ec0280}, ! Handle
  0.9.3;                                  ! Version Identifier

OS:SizingPeriod:DesignDay,
  {cdc5c560-be89-4f8e-8a0b-77ed6546224e}, ! Handle
  Jackson Hole Ann Clg 2% Condns Enth=>MDB, ! Name
  23.1,                                   ! Maximum Dry-Bulb Temperature {C}
  19,                                     ! Daily Dry-Bulb Temperature Range {deltaC}
  42800,                                  ! Humidity Indicating Conditions at Maximum Dry-Bulb {BasedOnField A3}
  79337,                                  ! Barometric Pressure {Pa}
  5,                                      ! Wind Speed {m/s}
  250,                                    ! Wind Direction {deg}
  0,                                      ! Sky Clearness
  0,                                      ! Rain Indicator
  0,                                      ! Snow Indicator
  21,                                     ! Day of Month
  7,                                      ! Month
  SummerDesignDay,                        ! Day Type
  0,                                      ! Daylight Saving Time Indicator
  Enthalpy,                               ! Humidity Indicating Type
  ,                                       ! Humidity Indicating Day Schedule Name
  DefaultMultipliers,                     ! Dry-Bulb Temperature Range Modifier Type
  ,                                       ! Dry-Bulb Temperature Range Modifier Schedule Name
  ASHRAETau,                              ! Solar Model Indicator
  ,                                       ! Beam Solar Day Schedule Name
  ,                                       ! Diffuse Solar Day Schedule Name
  0.353,                                  ! ASHRAE Taub {dimensionless}
  2.297;                                  ! ASHRAE Taud {dimensionless}

OS:ComponentData,
  {8e40bf48-4960-49fe-8179-3a118b915818}, ! Handle
  Component Data 1,                       ! Name
  {03251bc8-f7e7-46e1-bb57-11af25f908ad}, ! UUID
  {e3ed6700-2643-4755-ade2-704a9fbe08fc}, ! Version UUID
  1366311746,                             ! Creation Timestamp
  1366311746,                             ! Version Timestamp
  {cdc5c560-be89-4f8e-8a0b-77ed6546224e}; ! Name of Object 1

