
OS:Version,
  {4c791653-5cc2-40d0-9b2f-2c069992d798}, ! Handle
  0.9.3;                                  ! Version Identifier

OS:SizingPeriod:DesignDay,
  {4d4c9bd9-19a1-4c72-9d94-1f59ec5c156a}, ! Handle
  INDIANAPOLIS Ann Htg Wind 99.6% Condns WS=>MCDB, ! Name
  0.4,                                    ! Maximum Dry-Bulb Temperature {C}
  0,                                      ! Daily Dry-Bulb Temperature Range {deltaC}
  0.4,                                    ! Humidity Indicating Conditions at Maximum Dry-Bulb {BasedOnField A3}
  98404,                                  ! Barometric Pressure {Pa}
  12.4,                                   ! Wind Speed {m/s}
  270,                                    ! Wind Direction {deg}
  0,                                      ! Sky Clearness
  0,                                      ! Rain Indicator
  0,                                      ! Snow Indicator
  21,                                     ! Day of Month
  1,                                      ! Month
  WinterDesignDay,                        ! Day Type
  0,                                      ! Daylight Saving Time Indicator
  Wetbulb,                                ! Humidity Indicating Type
  ,                                       ! Humidity Indicating Day Schedule Name
  DefaultMultipliers,                     ! Dry-Bulb Temperature Range Modifier Type
  ,                                       ! Dry-Bulb Temperature Range Modifier Schedule Name
  ASHRAEClearSky;                         ! Solar Model Indicator

OS:ComponentData,
  {108e1cca-717e-4d3e-b16a-2eb937ada77a}, ! Handle
  Component Data 1,                       ! Name
  {e6021ed6-d9f9-4d5d-b081-bb7f7ca356b1}, ! UUID
  {e0e0f6f6-4a52-4c56-a72d-852fe02a14dc}, ! Version UUID
  1366307458,                             ! Creation Timestamp
  1366307458,                             ! Version Timestamp
  {4d4c9bd9-19a1-4c72-9d94-1f59ec5c156a}; ! Name of Object 1

