
OS:Version,
  {0a413d6c-dec1-41ba-b72c-12e012ef7ba3}, ! Handle
  0.9.3;                                  ! Version Identifier

OS:SizingPeriod:DesignDay,
  {69cbc8ae-a948-41d4-b99c-2e179f199233}, ! Handle
  KANSAS_CITY Ann Htg 99% Condns DB,      ! Name
  -14.8,                                  ! Maximum Dry-Bulb Temperature {C}
  0,                                      ! Daily Dry-Bulb Temperature Range {deltaC}
  -14.8,                                  ! Humidity Indicating Conditions at Maximum Dry-Bulb {BasedOnField A3}
  97598,                                  ! Barometric Pressure {Pa}
  4.6,                                    ! Wind Speed {m/s}
  340,                                    ! Wind Direction {deg}
  0,                                      ! Sky Clearness
  0,                                      ! Rain Indicator
  0,                                      ! Snow Indicator
  21,                                     ! Day of Month
  1,                                      ! Month
  WinterDesignDay,                        ! Day Type
  0,                                      ! Daylight Saving Time Indicator
  Wetbulb,                                ! Humidity Indicating Type
  ,                                       ! Humidity Indicating Day Schedule Name
  DefaultMultipliers,                     ! Dry-Bulb Temperature Range Modifier Type
  ,                                       ! Dry-Bulb Temperature Range Modifier Schedule Name
  ASHRAEClearSky;                         ! Solar Model Indicator

OS:ComponentData,
  {3dec3ecf-4bc1-41d4-a9df-d71af147ff12}, ! Handle
  Component Data 1,                       ! Name
  {e167def6-8c28-4b43-9f20-dc98cdde99ad}, ! UUID
  {b97f3f1a-e01d-4787-b915-68fd18637524}, ! Version UUID
  1366308519,                             ! Creation Timestamp
  1366308519,                             ! Version Timestamp
  {69cbc8ae-a948-41d4-b99c-2e179f199233}; ! Name of Object 1

