
OS:Version,
  {a5f19e65-4045-40f1-ac04-6bc877a03930}, ! Handle
  0.9.3;                                  ! Version Identifier

OS:SizingPeriod:DesignDay,
  {302316a6-6180-41db-903a-837b7ebecc70}, ! Handle
  Key West Nas Ann Clg 2% Condns DB=>MWB, ! Name
  31.7,                                   ! Maximum Dry-Bulb Temperature {C}
  5.2,                                    ! Daily Dry-Bulb Temperature Range {deltaC}
  25.9,                                   ! Humidity Indicating Conditions at Maximum Dry-Bulb {BasedOnField A3}
  101241,                                 ! Barometric Pressure {Pa}
  3.9,                                    ! Wind Speed {m/s}
  120,                                    ! Wind Direction {deg}
  0,                                      ! Sky Clearness
  0,                                      ! Rain Indicator
  0,                                      ! Snow Indicator
  21,                                     ! Day of Month
  8,                                      ! Month
  SummerDesignDay,                        ! Day Type
  0,                                      ! Daylight Saving Time Indicator
  Wetbulb,                                ! Humidity Indicating Type
  ,                                       ! Humidity Indicating Day Schedule Name
  DefaultMultipliers,                     ! Dry-Bulb Temperature Range Modifier Type
  ,                                       ! Dry-Bulb Temperature Range Modifier Schedule Name
  ASHRAETau,                              ! Solar Model Indicator
  ,                                       ! Beam Solar Day Schedule Name
  ,                                       ! Diffuse Solar Day Schedule Name
  0.462,                                  ! ASHRAE Taub {dimensionless}
  2.192;                                  ! ASHRAE Taud {dimensionless}

OS:ComponentData,
  {de54e517-850f-47c0-9dff-f37fef3f2eb0}, ! Handle
  Component Data 1,                       ! Name
  {5191da55-973b-41ae-80f3-19d83107440b}, ! UUID
  {7c8416fc-8b44-4ca4-b7ad-7c61e6436f23}, ! Version UUID
  1366306840,                             ! Creation Timestamp
  1366306840,                             ! Version Timestamp
  {302316a6-6180-41db-903a-837b7ebecc70}; ! Name of Object 1

