
OS:Version,
  {f66590cd-90a8-4e20-821d-7872ab6ce1ec}, ! Handle
  0.9.3;                                  ! Version Identifier

OS:SizingPeriod:DesignDay,
  {d67a4b96-d4b1-4bab-82e3-bf58146cc587}, ! Handle
  Hays Muni  Awos Ann Hum_n 99.6% Condns DP=>MCDB, ! Name
  -15,                                    ! Maximum Dry-Bulb Temperature {C}
  0,                                      ! Daily Dry-Bulb Temperature Range {deltaC}
  -21.4,                                  ! Humidity Indicating Conditions at Maximum Dry-Bulb {BasedOnField A3}
  94220,                                  ! Barometric Pressure {Pa}
  3.9,                                    ! Wind Speed {m/s}
  330,                                    ! Wind Direction {deg}
  0,                                      ! Sky Clearness
  0,                                      ! Rain Indicator
  0,                                      ! Snow Indicator
  21,                                     ! Day of Month
  1,                                      ! Month
  WinterDesignDay,                        ! Day Type
  0,                                      ! Daylight Saving Time Indicator
  Dewpoint,                               ! Humidity Indicating Type
  ,                                       ! Humidity Indicating Day Schedule Name
  DefaultMultipliers,                     ! Dry-Bulb Temperature Range Modifier Type
  ,                                       ! Dry-Bulb Temperature Range Modifier Schedule Name
  ASHRAEClearSky;                         ! Solar Model Indicator

OS:ComponentData,
  {18a2e511-1330-4204-8ea7-d615404a8957}, ! Handle
  Component Data 1,                       ! Name
  {7088c0aa-5363-4008-b9d2-51affa13c4d4}, ! UUID
  {13878401-d26f-40bc-800a-8ade0dca6218}, ! Version UUID
  1366307545,                             ! Creation Timestamp
  1366307545,                             ! Version Timestamp
  {d67a4b96-d4b1-4bab-82e3-bf58146cc587}; ! Name of Object 1

