
OS:Version,
  {31255d9c-a5c5-46e6-b467-d78495490742}, ! Handle
  0.9.3;                                  ! Version Identifier

OS:SizingPeriod:DesignDay,
  {b64586df-4a25-4b71-aae3-103ea6bac1e2}, ! Handle
  Charles City Ann Clg 1% Condns DP=>MDB, ! Name
  28.1,                                   ! Maximum Dry-Bulb Temperature {C}
  10.4,                                   ! Daily Dry-Bulb Temperature Range {deltaC}
  24.7,                                   ! Humidity Indicating Conditions at Maximum Dry-Bulb {BasedOnField A3}
  97272,                                  ! Barometric Pressure {Pa}
  5.1,                                    ! Wind Speed {m/s}
  190,                                    ! Wind Direction {deg}
  0,                                      ! Sky Clearness
  0,                                      ! Rain Indicator
  0,                                      ! Snow Indicator
  21,                                     ! Day of Month
  7,                                      ! Month
  SummerDesignDay,                        ! Day Type
  0,                                      ! Daylight Saving Time Indicator
  Dewpoint,                               ! Humidity Indicating Type
  ,                                       ! Humidity Indicating Day Schedule Name
  DefaultMultipliers,                     ! Dry-Bulb Temperature Range Modifier Type
  ,                                       ! Dry-Bulb Temperature Range Modifier Schedule Name
  ASHRAETau,                              ! Solar Model Indicator
  ,                                       ! Beam Solar Day Schedule Name
  ,                                       ! Diffuse Solar Day Schedule Name
  0.414,                                  ! ASHRAE Taub {dimensionless}
  2.191;                                  ! ASHRAE Taud {dimensionless}

OS:ComponentData,
  {335de6b1-6358-4fe1-ac14-96bc3e188856}, ! Handle
  Component Data 1,                       ! Name
  {543efdcb-699f-46ff-91bb-9c583e090ea1}, ! UUID
  {1ac6655f-7a29-44e1-a1f2-64306570658d}, ! Version UUID
  1366307156,                             ! Creation Timestamp
  1366307156,                             ! Version Timestamp
  {b64586df-4a25-4b71-aae3-103ea6bac1e2}; ! Name of Object 1

