
OS:Version,
  {acdeee4f-2659-4b29-a8c1-eef0affb983e}, ! Handle
  0.9.3;                                  ! Version Identifier

OS:SizingPeriod:DesignDay,
  {2d478c98-2977-4e37-ab45-f4fde847ac6a}, ! Handle
  Eagle County Ap Ann Htg 99% Condns DB,  ! Name
  -19,                                    ! Maximum Dry-Bulb Temperature {C}
  0,                                      ! Daily Dry-Bulb Temperature Range {deltaC}
  -19,                                    ! Humidity Indicating Conditions at Maximum Dry-Bulb {BasedOnField A3}
  79693,                                  ! Barometric Pressure {Pa}
  0.7,                                    ! Wind Speed {m/s}
  120,                                    ! Wind Direction {deg}
  0,                                      ! Sky Clearness
  0,                                      ! Rain Indicator
  0,                                      ! Snow Indicator
  21,                                     ! Day of Month
  1,                                      ! Month
  WinterDesignDay,                        ! Day Type
  0,                                      ! Daylight Saving Time Indicator
  Wetbulb,                                ! Humidity Indicating Type
  ,                                       ! Humidity Indicating Day Schedule Name
  DefaultMultipliers,                     ! Dry-Bulb Temperature Range Modifier Type
  ,                                       ! Dry-Bulb Temperature Range Modifier Schedule Name
  ASHRAEClearSky;                         ! Solar Model Indicator

OS:ComponentData,
  {3518bf6a-ba17-477e-9473-07765311b74e}, ! Handle
  Component Data 1,                       ! Name
  {9a12f248-5391-4f12-a767-9032503bab45}, ! UUID
  {37473aa7-cd01-4795-ac8c-e85746302332}, ! Version UUID
  1366306687,                             ! Creation Timestamp
  1366306687,                             ! Version Timestamp
  {2d478c98-2977-4e37-ab45-f4fde847ac6a}; ! Name of Object 1

