
OS:Version,
  {d802f0c2-58ef-479e-b199-e515be8c8765}, ! Handle
  0.9.3;                                  ! Version Identifier

OS:SizingPeriod:DesignDay,
  {1fffacdf-8942-43c3-bf5a-67e23c38f7bb}, ! Handle
  CHARLESTON Ann Clg 2% Condns DP=>MDB,   ! Name
  25.7,                                   ! Maximum Dry-Bulb Temperature {C}
  10.7,                                   ! Daily Dry-Bulb Temperature Range {deltaC}
  22,                                     ! Humidity Indicating Conditions at Maximum Dry-Bulb {BasedOnField A3}
  97889,                                  ! Barometric Pressure {Pa}
  2.9,                                    ! Wind Speed {m/s}
  240,                                    ! Wind Direction {deg}
  0,                                      ! Sky Clearness
  0,                                      ! Rain Indicator
  0,                                      ! Snow Indicator
  21,                                     ! Day of Month
  7,                                      ! Month
  SummerDesignDay,                        ! Day Type
  0,                                      ! Daylight Saving Time Indicator
  Dewpoint,                               ! Humidity Indicating Type
  ,                                       ! Humidity Indicating Day Schedule Name
  DefaultMultipliers,                     ! Dry-Bulb Temperature Range Modifier Type
  ,                                       ! Dry-Bulb Temperature Range Modifier Schedule Name
  ASHRAETau,                              ! Solar Model Indicator
  ,                                       ! Beam Solar Day Schedule Name
  ,                                       ! Diffuse Solar Day Schedule Name
  0.513,                                  ! ASHRAE Taub {dimensionless}
  1.859;                                  ! ASHRAE Taud {dimensionless}

OS:ComponentData,
  {41a38236-8887-4a61-8687-a5238a4740b6}, ! Handle
  Component Data 1,                       ! Name
  {4e5afb62-6dd2-4e06-8ce5-9d5990082850}, ! UUID
  {825ef9c8-4633-4532-86bd-f3cfeeb052d3}, ! Version UUID
  1366311632,                             ! Creation Timestamp
  1366311632,                             ! Version Timestamp
  {1fffacdf-8942-43c3-bf5a-67e23c38f7bb}; ! Name of Object 1

