
OS:Version,
  {674544e5-9fdc-4e81-8a4e-b80d94b5b2c7}, ! Handle
  0.9.3;                                  ! Version Identifier

OS:SizingPeriod:DesignDay,
  {50935564-f4ef-486b-8655-2ec14985a834}, ! Handle
  Elkins Elkins Randolph Co Arp Ann Clg 1% Condns DP=>MDB, ! Name
  24.7,                                   ! Maximum Dry-Bulb Temperature {C}
  12,                                     ! Daily Dry-Bulb Temperature Range {deltaC}
  20.8,                                   ! Humidity Indicating Conditions at Maximum Dry-Bulb {BasedOnField A3}
  94390,                                  ! Barometric Pressure {Pa}
  3.2,                                    ! Wind Speed {m/s}
  300,                                    ! Wind Direction {deg}
  0,                                      ! Sky Clearness
  0,                                      ! Rain Indicator
  0,                                      ! Snow Indicator
  21,                                     ! Day of Month
  7,                                      ! Month
  SummerDesignDay,                        ! Day Type
  0,                                      ! Daylight Saving Time Indicator
  Dewpoint,                               ! Humidity Indicating Type
  ,                                       ! Humidity Indicating Day Schedule Name
  DefaultMultipliers,                     ! Dry-Bulb Temperature Range Modifier Type
  ,                                       ! Dry-Bulb Temperature Range Modifier Schedule Name
  ASHRAETau,                              ! Solar Model Indicator
  ,                                       ! Beam Solar Day Schedule Name
  ,                                       ! Diffuse Solar Day Schedule Name
  0.489,                                  ! ASHRAE Taub {dimensionless}
  1.911;                                  ! ASHRAE Taud {dimensionless}

OS:ComponentData,
  {1ed7b63e-f6a3-4481-ba88-f81a6e69eab5}, ! Handle
  Component Data 1,                       ! Name
  {878b2bb4-ff02-4bf9-bc5d-a2c437199a50}, ! UUID
  {0c0a99eb-53b3-4157-8f2f-a476f1b2666d}, ! Version UUID
  1366311642,                             ! Creation Timestamp
  1366311642,                             ! Version Timestamp
  {50935564-f4ef-486b-8655-2ec14985a834}; ! Name of Object 1

