
OS:Version,
  {8f8ba4be-d50b-41f0-b251-cc60f3cb796b}, ! Handle
  0.9.3;                                  ! Version Identifier

OS:SizingPeriod:DesignDay,
  {e8674edf-97c1-4844-84c9-c592075241a2}, ! Handle
  COLUMBIA Ann Clg 1% Condns DB=>MWB,     ! Name
  34.7,                                   ! Maximum Dry-Bulb Temperature {C}
  11.1,                                   ! Daily Dry-Bulb Temperature Range {deltaC}
  23.9,                                   ! Humidity Indicating Conditions at Maximum Dry-Bulb {BasedOnField A3}
  100499,                                 ! Barometric Pressure {Pa}
  3.9,                                    ! Wind Speed {m/s}
  240,                                    ! Wind Direction {deg}
  0,                                      ! Sky Clearness
  0,                                      ! Rain Indicator
  0,                                      ! Snow Indicator
  21,                                     ! Day of Month
  7,                                      ! Month
  SummerDesignDay,                        ! Day Type
  0,                                      ! Daylight Saving Time Indicator
  Wetbulb,                                ! Humidity Indicating Type
  ,                                       ! Humidity Indicating Day Schedule Name
  DefaultMultipliers,                     ! Dry-Bulb Temperature Range Modifier Type
  ,                                       ! Dry-Bulb Temperature Range Modifier Schedule Name
  ASHRAETau,                              ! Solar Model Indicator
  ,                                       ! Beam Solar Day Schedule Name
  ,                                       ! Diffuse Solar Day Schedule Name
  0.566,                                  ! ASHRAE Taub {dimensionless}
  1.764;                                  ! ASHRAE Taud {dimensionless}

OS:ComponentData,
  {58b7418d-3f8b-4b19-a8a9-311175704ec0}, ! Handle
  Component Data 1,                       ! Name
  {1cca0cdd-9ede-4d78-aa96-d553c837103c}, ! UUID
  {c24aaecd-2e68-4d66-8b03-e27be88352f4}, ! Version UUID
  1366310336,                             ! Creation Timestamp
  1366310336,                             ! Version Timestamp
  {e8674edf-97c1-4844-84c9-c592075241a2}; ! Name of Object 1

