
OS:Version,
  {e456e479-3d0c-457c-b6a9-e79e1b734857}, ! Handle
  0.9.3;                                  ! Version Identifier

OS:SizingPeriod:DesignDay,
  {b3ccaa27-d8e0-4741-9266-80d325c96845}, ! Handle
  Bakersfield Ann Htg 99% Condns DB,      ! Name
  1.6,                                    ! Maximum Dry-Bulb Temperature {C}
  0,                                      ! Daily Dry-Bulb Temperature Range {deltaC}
  1.6,                                    ! Humidity Indicating Conditions at Maximum Dry-Bulb {BasedOnField A3}
  99536,                                  ! Barometric Pressure {Pa}
  1.7,                                    ! Wind Speed {m/s}
  90,                                     ! Wind Direction {deg}
  0,                                      ! Sky Clearness
  0,                                      ! Rain Indicator
  0,                                      ! Snow Indicator
  21,                                     ! Day of Month
  12,                                     ! Month
  WinterDesignDay,                        ! Day Type
  0,                                      ! Daylight Saving Time Indicator
  Wetbulb,                                ! Humidity Indicating Type
  ,                                       ! Humidity Indicating Day Schedule Name
  DefaultMultipliers,                     ! Dry-Bulb Temperature Range Modifier Type
  ,                                       ! Dry-Bulb Temperature Range Modifier Schedule Name
  ASHRAEClearSky;                         ! Solar Model Indicator

OS:ComponentData,
  {db114dcb-0119-4206-a3e8-ef5850e8b186}, ! Handle
  Component Data 1,                       ! Name
  {a975afe4-5bbd-409f-bab3-ce4f6568b4d6}, ! UUID
  {04a6d743-dd93-4c86-9771-8534ccb5b58d}, ! Version UUID
  1366306360,                             ! Creation Timestamp
  1366306360,                             ! Version Timestamp
  {b3ccaa27-d8e0-4741-9266-80d325c96845}; ! Name of Object 1

