
OS:Version,
  {d86c35aa-ff50-48c6-9407-ed3c25330c02}, ! Handle
  0.9.3;                                  ! Version Identifier

OS:SizingPeriod:DesignDay,
  {c41a0a93-caaf-4766-abe3-fec99f93becb}, ! Handle
  Lakehurst NAS Ann Clg .4% Condns WB=>MDB, ! Name
  31,                                     ! Maximum Dry-Bulb Temperature {C}
  10.6,                                   ! Daily Dry-Bulb Temperature Range {deltaC}
  26,                                     ! Humidity Indicating Conditions at Maximum Dry-Bulb {BasedOnField A3}
  100917,                                 ! Barometric Pressure {Pa}
  4,                                      ! Wind Speed {m/s}
  240,                                    ! Wind Direction {deg}
  0,                                      ! Sky Clearness
  0,                                      ! Rain Indicator
  0,                                      ! Snow Indicator
  21,                                     ! Day of Month
  7,                                      ! Month
  SummerDesignDay,                        ! Day Type
  0,                                      ! Daylight Saving Time Indicator
  Wetbulb,                                ! Humidity Indicating Type
  ,                                       ! Humidity Indicating Day Schedule Name
  DefaultMultipliers,                     ! Dry-Bulb Temperature Range Modifier Type
  ,                                       ! Dry-Bulb Temperature Range Modifier Schedule Name
  ASHRAETau,                              ! Solar Model Indicator
  ,                                       ! Beam Solar Day Schedule Name
  ,                                       ! Diffuse Solar Day Schedule Name
  0.539,                                  ! ASHRAE Taub {dimensionless}
  1.807;                                  ! ASHRAE Taud {dimensionless}

OS:ComponentData,
  {49df69b2-a5cb-4f9f-9271-4aab7bc23717}, ! Handle
  Component Data 1,                       ! Name
  {3068c3e5-222e-481c-bab6-2528ace856c6}, ! UUID
  {40a9905d-3c92-484a-8b0f-dff7672c3b13}, ! Version UUID
  1366309308,                             ! Creation Timestamp
  1366309308,                             ! Version Timestamp
  {c41a0a93-caaf-4766-abe3-fec99f93becb}; ! Name of Object 1

