
OS:Version,
  {5d36e527-87d9-45a9-a598-48397d9df91c}, ! Handle
  0.9.3;                                  ! Version Identifier

OS:SizingPeriod:DesignDay,
  {ae1570ae-beba-4d2b-943f-3b82bb7117c3}, ! Handle
  Fayetteville Rgnl G Ann Clg 1% Condns WB=>MDB, ! Name
  31.3,                                   ! Maximum Dry-Bulb Temperature {C}
  10.4,                                   ! Daily Dry-Bulb Temperature Range {deltaC}
  25.7,                                   ! Humidity Indicating Conditions at Maximum Dry-Bulb {BasedOnField A3}
  100618,                                 ! Barometric Pressure {Pa}
  3.7,                                    ! Wind Speed {m/s}
  240,                                    ! Wind Direction {deg}
  0,                                      ! Sky Clearness
  0,                                      ! Rain Indicator
  0,                                      ! Snow Indicator
  21,                                     ! Day of Month
  7,                                      ! Month
  SummerDesignDay,                        ! Day Type
  0,                                      ! Daylight Saving Time Indicator
  Wetbulb,                                ! Humidity Indicating Type
  ,                                       ! Humidity Indicating Day Schedule Name
  DefaultMultipliers,                     ! Dry-Bulb Temperature Range Modifier Type
  ,                                       ! Dry-Bulb Temperature Range Modifier Schedule Name
  ASHRAETau,                              ! Solar Model Indicator
  ,                                       ! Beam Solar Day Schedule Name
  ,                                       ! Diffuse Solar Day Schedule Name
  0.584,                                  ! ASHRAE Taub {dimensionless}
  1.713;                                  ! ASHRAE Taud {dimensionless}

OS:ComponentData,
  {0587393c-bded-4a35-b812-5259cd189cdf}, ! Handle
  Component Data 1,                       ! Name
  {a4ca2aaa-eadf-4bef-b664-4f8315abe68d}, ! UUID
  {b56f3dfe-eb2b-4aae-afd1-0db817aa884a}, ! Version UUID
  1366308915,                             ! Creation Timestamp
  1366308915,                             ! Version Timestamp
  {ae1570ae-beba-4d2b-943f-3b82bb7117c3}; ! Name of Object 1

