
OS:Version,
  {693c9ba8-3679-4c2b-befa-8783d5814b40}, ! Handle
  0.9.3;                                  ! Version Identifier

OS:SizingPeriod:DesignDay,
  {7f6971d0-8ebf-4d4c-8a38-486b85e208f8}, ! Handle
  Columbus Port Columbus Intl A Ann Clg 2% Condns Enth=>MDB, ! Name
  28,                                     ! Maximum Dry-Bulb Temperature {C}
  10.5,                                   ! Daily Dry-Bulb Temperature Range {deltaC}
  70200,                                  ! Humidity Indicating Conditions at Maximum Dry-Bulb {BasedOnField A3}
  98393,                                  ! Barometric Pressure {Pa}
  4.3,                                    ! Wind Speed {m/s}
  240,                                    ! Wind Direction {deg}
  0,                                      ! Sky Clearness
  0,                                      ! Rain Indicator
  0,                                      ! Snow Indicator
  21,                                     ! Day of Month
  7,                                      ! Month
  SummerDesignDay,                        ! Day Type
  0,                                      ! Daylight Saving Time Indicator
  Enthalpy,                               ! Humidity Indicating Type
  ,                                       ! Humidity Indicating Day Schedule Name
  DefaultMultipliers,                     ! Dry-Bulb Temperature Range Modifier Type
  ,                                       ! Dry-Bulb Temperature Range Modifier Schedule Name
  ASHRAETau,                              ! Solar Model Indicator
  ,                                       ! Beam Solar Day Schedule Name
  ,                                       ! Diffuse Solar Day Schedule Name
  0.484,                                  ! ASHRAE Taub {dimensionless}
  1.943;                                  ! ASHRAE Taud {dimensionless}

OS:ComponentData,
  {0f75f76c-a8e4-4bbb-abb7-13c3a39030c6}, ! Handle
  Component Data 1,                       ! Name
  {740fbc6e-2f0b-4a68-9c7d-d3fdfce38f75}, ! UUID
  {7913730b-e757-47b7-b451-806dd01fc9f1}, ! Version UUID
  1366309800,                             ! Creation Timestamp
  1366309800,                             ! Version Timestamp
  {7f6971d0-8ebf-4d4c-8a38-486b85e208f8}; ! Name of Object 1

