
OS:Version,
  {da55e90c-39c1-4164-8c15-e9b806c17442}, ! Handle
  0.9.3;                                  ! Version Identifier

OS:SizingPeriod:DesignDay,
  {a464bbdd-d24c-4ea4-b68e-dfe8ba2bac5f}, ! Handle
  Gadsen Muni  Awos Ann Clg 1% Condns DB=>MWB, ! Name
  32.9,                                   ! Maximum Dry-Bulb Temperature {C}
  10.9,                                   ! Daily Dry-Bulb Temperature Range {deltaC}
  23.6,                                   ! Humidity Indicating Conditions at Maximum Dry-Bulb {BasedOnField A3}
  99264,                                  ! Barometric Pressure {Pa}
  3,                                      ! Wind Speed {m/s}
  300,                                    ! Wind Direction {deg}
  0,                                      ! Sky Clearness
  0,                                      ! Rain Indicator
  0,                                      ! Snow Indicator
  21,                                     ! Day of Month
  7,                                      ! Month
  SummerDesignDay,                        ! Day Type
  0,                                      ! Daylight Saving Time Indicator
  Wetbulb,                                ! Humidity Indicating Type
  ,                                       ! Humidity Indicating Day Schedule Name
  DefaultMultipliers,                     ! Dry-Bulb Temperature Range Modifier Type
  ,                                       ! Dry-Bulb Temperature Range Modifier Schedule Name
  ASHRAETau,                              ! Solar Model Indicator
  ,                                       ! Beam Solar Day Schedule Name
  ,                                       ! Diffuse Solar Day Schedule Name
  0.58,                                   ! ASHRAE Taub {dimensionless}
  1.728;                                  ! ASHRAE Taud {dimensionless}

OS:ComponentData,
  {3c33892b-4852-4dc5-bb98-7a22ed567ffe}, ! Handle
  Component Data 1,                       ! Name
  {e6820e8e-2f15-48d0-a19c-3d1287e12621}, ! UUID
  {56881aff-1516-4c5b-addd-15ee9a6431fd}, ! Version UUID
  1366305663,                             ! Creation Timestamp
  1366305663,                             ! Version Timestamp
  {a464bbdd-d24c-4ea4-b68e-dfe8ba2bac5f}; ! Name of Object 1

