
OS:Version,
  {9ff56aaf-c136-4064-b3dd-4c8cadd8daf8}, ! Handle
  0.9.3;                                  ! Version Identifier

OS:SizingPeriod:DesignDay,
  {e910e068-203f-4a74-80b9-f67cb37e879a}, ! Handle
  Dayton International Airport Ann Clg .4% Condns DP=>MDB, ! Name
  27.7,                                   ! Maximum Dry-Bulb Temperature {C}
  10.3,                                   ! Daily Dry-Bulb Temperature Range {deltaC}
  23,                                     ! Humidity Indicating Conditions at Maximum Dry-Bulb {BasedOnField A3}
  97714,                                  ! Barometric Pressure {Pa}
  4.7,                                    ! Wind Speed {m/s}
  240,                                    ! Wind Direction {deg}
  0,                                      ! Sky Clearness
  0,                                      ! Rain Indicator
  0,                                      ! Snow Indicator
  21,                                     ! Day of Month
  7,                                      ! Month
  SummerDesignDay,                        ! Day Type
  0,                                      ! Daylight Saving Time Indicator
  Dewpoint,                               ! Humidity Indicating Type
  ,                                       ! Humidity Indicating Day Schedule Name
  DefaultMultipliers,                     ! Dry-Bulb Temperature Range Modifier Type
  ,                                       ! Dry-Bulb Temperature Range Modifier Schedule Name
  ASHRAETau,                              ! Solar Model Indicator
  ,                                       ! Beam Solar Day Schedule Name
  ,                                       ! Diffuse Solar Day Schedule Name
  0.478,                                  ! ASHRAE Taub {dimensionless}
  1.955;                                  ! ASHRAE Taud {dimensionless}

OS:ComponentData,
  {3be7a3ae-8d25-4880-879c-1181feafb3a0}, ! Handle
  Component Data 1,                       ! Name
  {171f69b8-449d-43b5-a3a3-f3f1f063603e}, ! UUID
  {944170ca-093c-4942-976e-9af1a438e1b9}, ! Version UUID
  1366309822,                             ! Creation Timestamp
  1366309822,                             ! Version Timestamp
  {e910e068-203f-4a74-80b9-f67cb37e879a}; ! Name of Object 1

