
OS:Version,
  {bd7635ce-d739-40a5-a207-1f2b3c86dc2c}, ! Handle
  0.9.3;                                  ! Version Identifier

OS:SizingPeriod:DesignDay,
  {1df1fe1f-b339-4fbd-9ae0-18fdadb47b86}, ! Handle
  Huntington Tri State Arpt Ann Clg 2% Condns Enth=>MDB, ! Name
  28.5,                                   ! Maximum Dry-Bulb Temperature {C}
  10.5,                                   ! Daily Dry-Bulb Temperature Range {deltaC}
  72200,                                  ! Humidity Indicating Conditions at Maximum Dry-Bulb {BasedOnField A3}
  98322,                                  ! Barometric Pressure {Pa}
  3.3,                                    ! Wind Speed {m/s}
  260,                                    ! Wind Direction {deg}
  0,                                      ! Sky Clearness
  0,                                      ! Rain Indicator
  0,                                      ! Snow Indicator
  21,                                     ! Day of Month
  7,                                      ! Month
  SummerDesignDay,                        ! Day Type
  0,                                      ! Daylight Saving Time Indicator
  Enthalpy,                               ! Humidity Indicating Type
  ,                                       ! Humidity Indicating Day Schedule Name
  DefaultMultipliers,                     ! Dry-Bulb Temperature Range Modifier Type
  ,                                       ! Dry-Bulb Temperature Range Modifier Schedule Name
  ASHRAETau,                              ! Solar Model Indicator
  ,                                       ! Beam Solar Day Schedule Name
  ,                                       ! Diffuse Solar Day Schedule Name
  0.512,                                  ! ASHRAE Taub {dimensionless}
  1.865;                                  ! ASHRAE Taud {dimensionless}

OS:ComponentData,
  {ce7b6f6d-810b-44a9-9c94-c1624e9391ab}, ! Handle
  Component Data 1,                       ! Name
  {9e90ff81-f04d-4b39-b6c5-2c519185f9b6}, ! UUID
  {bc8606a2-72c7-4713-98d9-3b3c2a6af637}, ! Version UUID
  1366311654,                             ! Creation Timestamp
  1366311654,                             ! Version Timestamp
  {1df1fe1f-b339-4fbd-9ae0-18fdadb47b86}; ! Name of Object 1

