
OS:Version,
  {d27e602f-efe3-46c2-8f15-70198e7edbc7}, ! Handle
  0.9.3;                                  ! Version Identifier

OS:SizingPeriod:DesignDay,
  {3561e3a3-6f82-42e2-a7d7-486bb34eeb45}, ! Handle
  JACKSONVILLE Ann Clg .4% Condns DP=>MDB, ! Name
  28.7,                                   ! Maximum Dry-Bulb Temperature {C}
  10,                                     ! Daily Dry-Bulb Temperature Range {deltaC}
  25.3,                                   ! Humidity Indicating Conditions at Maximum Dry-Bulb {BasedOnField A3}
  101217,                                 ! Barometric Pressure {Pa}
  3.6,                                    ! Wind Speed {m/s}
  260,                                    ! Wind Direction {deg}
  0,                                      ! Sky Clearness
  0,                                      ! Rain Indicator
  0,                                      ! Snow Indicator
  21,                                     ! Day of Month
  7,                                      ! Month
  SummerDesignDay,                        ! Day Type
  0,                                      ! Daylight Saving Time Indicator
  Dewpoint,                               ! Humidity Indicating Type
  ,                                       ! Humidity Indicating Day Schedule Name
  DefaultMultipliers,                     ! Dry-Bulb Temperature Range Modifier Type
  ,                                       ! Dry-Bulb Temperature Range Modifier Schedule Name
  ASHRAETau,                              ! Solar Model Indicator
  ,                                       ! Beam Solar Day Schedule Name
  ,                                       ! Diffuse Solar Day Schedule Name
  0.541,                                  ! ASHRAE Taub {dimensionless}
  1.863;                                  ! ASHRAE Taud {dimensionless}

OS:ComponentData,
  {92e89a60-14b7-4d65-8f97-dfefcfcf87e8}, ! Handle
  Component Data 1,                       ! Name
  {00d19b75-e3df-4da3-ab96-c0b6107e7a5a}, ! UUID
  {6bdb83be-e894-4360-b81f-84ea9c74d7c7}, ! Version UUID
  1366306817,                             ! Creation Timestamp
  1366306817,                             ! Version Timestamp
  {3561e3a3-6f82-42e2-a7d7-486bb34eeb45}; ! Name of Object 1

