
OS:Version,
  {3d8e300f-49d3-4e20-abd6-13dc623161d5}, ! Handle
  0.9.3;                                  ! Version Identifier

OS:SizingPeriod:DesignDay,
  {4324d2df-5f27-4485-83d8-cc385c4cee2a}, ! Handle
  Kalispell Glacier Pk IntL Ar Ann Clg .4% Condns Enth=>MDB, ! Name
  28,                                     ! Maximum Dry-Bulb Temperature {C}
  17,                                     ! Daily Dry-Bulb Temperature Range {deltaC}
  55700,                                  ! Humidity Indicating Conditions at Maximum Dry-Bulb {BasedOnField A3}
  90904,                                  ! Barometric Pressure {Pa}
  3.6,                                    ! Wind Speed {m/s}
  160,                                    ! Wind Direction {deg}
  0,                                      ! Sky Clearness
  0,                                      ! Rain Indicator
  0,                                      ! Snow Indicator
  21,                                     ! Day of Month
  7,                                      ! Month
  SummerDesignDay,                        ! Day Type
  0,                                      ! Daylight Saving Time Indicator
  Enthalpy,                               ! Humidity Indicating Type
  ,                                       ! Humidity Indicating Day Schedule Name
  DefaultMultipliers,                     ! Dry-Bulb Temperature Range Modifier Type
  ,                                       ! Dry-Bulb Temperature Range Modifier Schedule Name
  ASHRAETau,                              ! Solar Model Indicator
  ,                                       ! Beam Solar Day Schedule Name
  ,                                       ! Diffuse Solar Day Schedule Name
  0.355,                                  ! ASHRAE Taub {dimensionless}
  2.406;                                  ! ASHRAE Taud {dimensionless}

OS:ComponentData,
  {d47905cc-1185-4729-a699-50db6c0dba8d}, ! Handle
  Component Data 1,                       ! Name
  {f0a78b75-01dc-429b-a0fc-ec59c0d4dc3e}, ! UUID
  {477b19e0-8bdc-4a2d-aa71-263b20c9c0fe}, ! Version UUID
  1366308805,                             ! Creation Timestamp
  1366308805,                             ! Version Timestamp
  {4324d2df-5f27-4485-83d8-cc385c4cee2a}; ! Name of Object 1

