
OS:Version,
  {08273cb0-3e97-4b6a-9d7b-32081d2bc04c}, ! Handle
  0.9.3;                                  ! Version Identifier

OS:SizingPeriod:DesignDay,
  {24063ad6-81c0-4f2d-a0f3-b91e91b1129c}, ! Handle
  Dodge City Ann Clg .4% Condns DP=>MDB,  ! Name
  26.5,                                   ! Maximum Dry-Bulb Temperature {C}
  13.9,                                   ! Daily Dry-Bulb Temperature Range {deltaC}
  21.3,                                   ! Humidity Indicating Conditions at Maximum Dry-Bulb {BasedOnField A3}
  92188,                                  ! Barometric Pressure {Pa}
  7.4,                                    ! Wind Speed {m/s}
  180,                                    ! Wind Direction {deg}
  0,                                      ! Sky Clearness
  0,                                      ! Rain Indicator
  0,                                      ! Snow Indicator
  21,                                     ! Day of Month
  7,                                      ! Month
  SummerDesignDay,                        ! Day Type
  0,                                      ! Daylight Saving Time Indicator
  Dewpoint,                               ! Humidity Indicating Type
  ,                                       ! Humidity Indicating Day Schedule Name
  DefaultMultipliers,                     ! Dry-Bulb Temperature Range Modifier Type
  ,                                       ! Dry-Bulb Temperature Range Modifier Schedule Name
  ASHRAETau,                              ! Solar Model Indicator
  ,                                       ! Beam Solar Day Schedule Name
  ,                                       ! Diffuse Solar Day Schedule Name
  0.419,                                  ! ASHRAE Taub {dimensionless}
  2.142;                                  ! ASHRAE Taud {dimensionless}

OS:ComponentData,
  {797dfd5e-d43f-4486-966d-fe089dfb4080}, ! Handle
  Component Data 1,                       ! Name
  {d6a8e29b-7f18-4e7c-a17d-efa39cc21e06}, ! UUID
  {2e10fa3b-74ec-4c29-88be-18626c608e95}, ! Version UUID
  1366307513,                             ! Creation Timestamp
  1366307513,                             ! Version Timestamp
  {24063ad6-81c0-4f2d-a0f3-b91e91b1129c}; ! Name of Object 1

