
OS:Version,
  {1e5ce313-54a6-4a59-8e1c-74ef54fc812c}, ! Handle
  0.9.3;                                  ! Version Identifier

OS:SizingPeriod:DesignDay,
  {4767be66-894b-4e5a-ab79-6619c6bf2948}, ! Handle
  Cincinnati Municipal Ap Lunki Ann Clg 2% Condns DB=>MWB, ! Name
  31,                                     ! Maximum Dry-Bulb Temperature {C}
  11,                                     ! Daily Dry-Bulb Temperature Range {deltaC}
  22.9,                                   ! Humidity Indicating Conditions at Maximum Dry-Bulb {BasedOnField A3}
  99548,                                  ! Barometric Pressure {Pa}
  4.3,                                    ! Wind Speed {m/s}
  240,                                    ! Wind Direction {deg}
  0,                                      ! Sky Clearness
  0,                                      ! Rain Indicator
  0,                                      ! Snow Indicator
  21,                                     ! Day of Month
  7,                                      ! Month
  SummerDesignDay,                        ! Day Type
  0,                                      ! Daylight Saving Time Indicator
  Wetbulb,                                ! Humidity Indicating Type
  ,                                       ! Humidity Indicating Day Schedule Name
  DefaultMultipliers,                     ! Dry-Bulb Temperature Range Modifier Type
  ,                                       ! Dry-Bulb Temperature Range Modifier Schedule Name
  ASHRAETau,                              ! Solar Model Indicator
  ,                                       ! Beam Solar Day Schedule Name
  ,                                       ! Diffuse Solar Day Schedule Name
  0.505,                                  ! ASHRAE Taub {dimensionless}
  1.887;                                  ! ASHRAE Taud {dimensionless}

OS:ComponentData,
  {01dce458-d5ca-46a4-aaf3-ded2ca34014e}, ! Handle
  Component Data 1,                       ! Name
  {6f963887-801d-42f5-81be-0fc7bf6f9a5c}, ! UUID
  {58d97ad8-75a5-4cd9-96b1-51fb5689c5ac}, ! Version UUID
  1366309775,                             ! Creation Timestamp
  1366309775,                             ! Version Timestamp
  {4767be66-894b-4e5a-ab79-6619c6bf2948}; ! Name of Object 1

