
OS:Version,
  {f3a28582-4c23-472e-a477-d70818ed6e32}, ! Handle
  0.9.3;                                  ! Version Identifier

OS:SizingPeriod:DesignDay,
  {a1f2fce1-4408-446d-bdc0-c720488c584a}, ! Handle
  Grand Rapids Awos Ann Clg 1% Condns DP=>MDB, ! Name
  25.3,                                   ! Maximum Dry-Bulb Temperature {C}
  11.1,                                   ! Daily Dry-Bulb Temperature Range {deltaC}
  18.6,                                   ! Humidity Indicating Conditions at Maximum Dry-Bulb {BasedOnField A3}
  96461,                                  ! Barometric Pressure {Pa}
  4.7,                                    ! Wind Speed {m/s}
  170,                                    ! Wind Direction {deg}
  0,                                      ! Sky Clearness
  0,                                      ! Rain Indicator
  0,                                      ! Snow Indicator
  21,                                     ! Day of Month
  7,                                      ! Month
  SummerDesignDay,                        ! Day Type
  0,                                      ! Daylight Saving Time Indicator
  Dewpoint,                               ! Humidity Indicating Type
  ,                                       ! Humidity Indicating Day Schedule Name
  DefaultMultipliers,                     ! Dry-Bulb Temperature Range Modifier Type
  ,                                       ! Dry-Bulb Temperature Range Modifier Schedule Name
  ASHRAETau,                              ! Solar Model Indicator
  ,                                       ! Beam Solar Day Schedule Name
  ,                                       ! Diffuse Solar Day Schedule Name
  0.396,                                  ! ASHRAE Taub {dimensionless}
  2.227;                                  ! ASHRAE Taud {dimensionless}

OS:ComponentData,
  {e9b49d08-a4c7-4ef8-a386-292ee9a090ae}, ! Handle
  Component Data 1,                       ! Name
  {b297a2be-fd84-4c93-a2c4-b6546f9ec9be}, ! UUID
  {9b621d1f-a956-4d96-812b-7e78934d29ad}, ! Version UUID
  1366308247,                             ! Creation Timestamp
  1366308247,                             ! Version Timestamp
  {a1f2fce1-4408-446d-bdc0-c720488c584a}; ! Name of Object 1

