
OS:Version,
  {8f01281c-ddff-4e0a-b183-4368abb2167f}, ! Handle
  0.9.3;                                  ! Version Identifier

OS:SizingPeriod:DesignDay,
  {30900ab7-3c67-47f1-9c06-6a4e48404bd4}, ! Handle
  Limon Ann Clg 2% Condns WB=>MDB,        ! Name
  25.7,                                   ! Maximum Dry-Bulb Temperature {C}
  16.7,                                   ! Daily Dry-Bulb Temperature Range {deltaC}
  17.2,                                   ! Humidity Indicating Conditions at Maximum Dry-Bulb {BasedOnField A3}
  82552,                                  ! Barometric Pressure {Pa}
  5.5,                                    ! Wind Speed {m/s}
  170,                                    ! Wind Direction {deg}
  0,                                      ! Sky Clearness
  0,                                      ! Rain Indicator
  0,                                      ! Snow Indicator
  21,                                     ! Day of Month
  7,                                      ! Month
  SummerDesignDay,                        ! Day Type
  0,                                      ! Daylight Saving Time Indicator
  Wetbulb,                                ! Humidity Indicating Type
  ,                                       ! Humidity Indicating Day Schedule Name
  DefaultMultipliers,                     ! Dry-Bulb Temperature Range Modifier Type
  ,                                       ! Dry-Bulb Temperature Range Modifier Schedule Name
  ASHRAETau,                              ! Solar Model Indicator
  ,                                       ! Beam Solar Day Schedule Name
  ,                                       ! Diffuse Solar Day Schedule Name
  0.412,                                  ! ASHRAE Taub {dimensionless}
  2.036;                                  ! ASHRAE Taud {dimensionless}

OS:ComponentData,
  {3f5261f6-ce53-4776-8936-415791cb360f}, ! Handle
  Component Data 1,                       ! Name
  {55243e8c-53a4-46bc-b496-6081b1b70dbf}, ! UUID
  {31c82105-a3bc-40a5-b942-0fc96252068c}, ! Version UUID
  1366306721,                             ! Creation Timestamp
  1366306721,                             ! Version Timestamp
  {30900ab7-3c67-47f1-9c06-6a4e48404bd4}; ! Name of Object 1

