
OS:Version,
  {99ca05f8-a7db-40cc-8a40-047605537dbe}, ! Handle
  0.9.3;                                  ! Version Identifier

OS:SizingPeriod:DesignDay,
  {d80c4a02-2f7d-4b8f-816f-feac41d92c8f}, ! Handle
  Brainerd Wieland Ann Htg 99% Condns DB, ! Name
  -24.3,                                  ! Maximum Dry-Bulb Temperature {C}
  0,                                      ! Daily Dry-Bulb Temperature Range {deltaC}
  -24.3,                                  ! Humidity Indicating Conditions at Maximum Dry-Bulb {BasedOnField A3}
  96912,                                  ! Barometric Pressure {Pa}
  1.5,                                    ! Wind Speed {m/s}
  240,                                    ! Wind Direction {deg}
  0,                                      ! Sky Clearness
  0,                                      ! Rain Indicator
  0,                                      ! Snow Indicator
  21,                                     ! Day of Month
  1,                                      ! Month
  WinterDesignDay,                        ! Day Type
  0,                                      ! Daylight Saving Time Indicator
  Wetbulb,                                ! Humidity Indicating Type
  ,                                       ! Humidity Indicating Day Schedule Name
  DefaultMultipliers,                     ! Dry-Bulb Temperature Range Modifier Type
  ,                                       ! Dry-Bulb Temperature Range Modifier Schedule Name
  ASHRAEClearSky;                         ! Solar Model Indicator

OS:ComponentData,
  {973fbae1-74c9-4762-aacd-c152df39a30e}, ! Handle
  Component Data 1,                       ! Name
  {77caf950-e7a3-4734-96a8-e66fa0c7a94b}, ! UUID
  {fe3b60ba-917e-44cc-a4d2-384943285f65}, ! Version UUID
  1366308170,                             ! Creation Timestamp
  1366308170,                             ! Version Timestamp
  {d80c4a02-2f7d-4b8f-816f-feac41d92c8f}; ! Name of Object 1

