
OS:Version,
  {659b2147-4792-4adb-a662-abfe5d8fcfd7}, ! Handle
  0.9.3;                                  ! Version Identifier

OS:SizingPeriod:DesignDay,
  {fdd32aae-551e-439e-8189-acb7f149eb05}, ! Handle
  Jacksonville  Awos Ann Clg .4% Condns DP=>MDB, ! Name
  29,                                     ! Maximum Dry-Bulb Temperature {C}
  10.6,                                   ! Daily Dry-Bulb Temperature Range {deltaC}
  24.1,                                   ! Humidity Indicating Conditions at Maximum Dry-Bulb {BasedOnField A3}
  100977,                                 ! Barometric Pressure {Pa}
  3.7,                                    ! Wind Speed {m/s}
  230,                                    ! Wind Direction {deg}
  0,                                      ! Sky Clearness
  0,                                      ! Rain Indicator
  0,                                      ! Snow Indicator
  21,                                     ! Day of Month
  7,                                      ! Month
  SummerDesignDay,                        ! Day Type
  0,                                      ! Daylight Saving Time Indicator
  Dewpoint,                               ! Humidity Indicating Type
  ,                                       ! Humidity Indicating Day Schedule Name
  DefaultMultipliers,                     ! Dry-Bulb Temperature Range Modifier Type
  ,                                       ! Dry-Bulb Temperature Range Modifier Schedule Name
  ASHRAETau,                              ! Solar Model Indicator
  ,                                       ! Beam Solar Day Schedule Name
  ,                                       ! Diffuse Solar Day Schedule Name
  0.594,                                  ! ASHRAE Taub {dimensionless}
  1.701;                                  ! ASHRAE Taud {dimensionless}

OS:ComponentData,
  {81281229-ec4d-4914-aa19-8afb3b364583}, ! Handle
  Component Data 1,                       ! Name
  {4e713a12-4fcf-4fe0-b1d1-be080803ded2}, ! UUID
  {64acae83-2929-40cf-b395-fd9befdb0a2f}, ! Version UUID
  1366308945,                             ! Creation Timestamp
  1366308945,                             ! Version Timestamp
  {fdd32aae-551e-439e-8189-acb7f149eb05}; ! Name of Object 1

