
OS:Version,
  {d8c52dde-9ffa-44d8-899b-c6b5dd15941e}, ! Handle
  0.9.3;                                  ! Version Identifier

OS:SizingPeriod:DesignDay,
  {f59ed67d-1684-40d6-92e2-9040958f47f0}, ! Handle
  Barksdale Afb Ann Clg 2% Condns WB=>MDB, ! Name
  31.3,                                   ! Maximum Dry-Bulb Temperature {C}
  10.5,                                   ! Daily Dry-Bulb Temperature Range {deltaC}
  25.6,                                   ! Humidity Indicating Conditions at Maximum Dry-Bulb {BasedOnField A3}
  100678,                                 ! Barometric Pressure {Pa}
  2.6,                                    ! Wind Speed {m/s}
  180,                                    ! Wind Direction {deg}
  0,                                      ! Sky Clearness
  0,                                      ! Rain Indicator
  0,                                      ! Snow Indicator
  21,                                     ! Day of Month
  7,                                      ! Month
  SummerDesignDay,                        ! Day Type
  0,                                      ! Daylight Saving Time Indicator
  Wetbulb,                                ! Humidity Indicating Type
  ,                                       ! Humidity Indicating Day Schedule Name
  DefaultMultipliers,                     ! Dry-Bulb Temperature Range Modifier Type
  ,                                       ! Dry-Bulb Temperature Range Modifier Schedule Name
  ASHRAETau,                              ! Solar Model Indicator
  ,                                       ! Beam Solar Day Schedule Name
  ,                                       ! Diffuse Solar Day Schedule Name
  0.492,                                  ! ASHRAE Taub {dimensionless}
  2.007;                                  ! ASHRAE Taud {dimensionless}

OS:ComponentData,
  {fdf5d4ca-8000-4d15-a011-b079a20edff0}, ! Handle
  Component Data 1,                       ! Name
  {fa86f7f2-b3cf-476f-b748-4df6449c6391}, ! UUID
  {ae9a090c-caf4-407c-8e26-34d0624f8e5e}, ! Version UUID
  1366307700,                             ! Creation Timestamp
  1366307700,                             ! Version Timestamp
  {f59ed67d-1684-40d6-92e2-9040958f47f0}; ! Name of Object 1

