
OS:Version,
  {6d48ee53-e8cb-483f-ba2f-5619c94ca19a}, ! Handle
  0.9.3;                                  ! Version Identifier

OS:SizingPeriod:DesignDay,
  {182d4f64-4319-487c-9b23-7a9ccff2e982}, ! Handle
  LIHUE Ann Clg 1% Condns DP=>MDB,        ! Name
  26.6,                                   ! Maximum Dry-Bulb Temperature {C}
  4.8,                                    ! Daily Dry-Bulb Temperature Range {deltaC}
  23.6,                                   ! Humidity Indicating Conditions at Maximum Dry-Bulb {BasedOnField A3}
  100786,                                 ! Barometric Pressure {Pa}
  6.4,                                    ! Wind Speed {m/s}
  60,                                     ! Wind Direction {deg}
  0,                                      ! Sky Clearness
  0,                                      ! Rain Indicator
  0,                                      ! Snow Indicator
  21,                                     ! Day of Month
  8,                                      ! Month
  SummerDesignDay,                        ! Day Type
  0,                                      ! Daylight Saving Time Indicator
  Dewpoint,                               ! Humidity Indicating Type
  ,                                       ! Humidity Indicating Day Schedule Name
  DefaultMultipliers,                     ! Dry-Bulb Temperature Range Modifier Type
  ,                                       ! Dry-Bulb Temperature Range Modifier Schedule Name
  ASHRAETau,                              ! Solar Model Indicator
  ,                                       ! Beam Solar Day Schedule Name
  ,                                       ! Diffuse Solar Day Schedule Name
  0.385,                                  ! ASHRAE Taub {dimensionless}
  2.509;                                  ! ASHRAE Taud {dimensionless}

