
OS:Version,
  {7ad29d80-6e11-44be-a6c4-4e00b7e4f652}, ! Handle
  0.9.3;                                  ! Version Identifier

OS:SizingPeriod:DesignDay,
  {e31e3b07-8067-4f07-90ac-127b25784881}, ! Handle
  Del Rio  Ut Ann Clg .4% Condns Enth=>MDB, ! Name
  31.8,                                   ! Maximum Dry-Bulb Temperature {C}
  11.4,                                   ! Daily Dry-Bulb Temperature Range {deltaC}
  79000,                                  ! Humidity Indicating Conditions at Maximum Dry-Bulb {BasedOnField A3}
  97679,                                  ! Barometric Pressure {Pa}
  4.8,                                    ! Wind Speed {m/s}
  140,                                    ! Wind Direction {deg}
  0,                                      ! Sky Clearness
  0,                                      ! Rain Indicator
  0,                                      ! Snow Indicator
  21,                                     ! Day of Month
  7,                                      ! Month
  SummerDesignDay,                        ! Day Type
  0,                                      ! Daylight Saving Time Indicator
  Enthalpy,                               ! Humidity Indicating Type
  ,                                       ! Humidity Indicating Day Schedule Name
  DefaultMultipliers,                     ! Dry-Bulb Temperature Range Modifier Type
  ,                                       ! Dry-Bulb Temperature Range Modifier Schedule Name
  ASHRAETau,                              ! Solar Model Indicator
  ,                                       ! Beam Solar Day Schedule Name
  ,                                       ! Diffuse Solar Day Schedule Name
  0.48,                                   ! ASHRAE Taub {dimensionless}
  1.993;                                  ! ASHRAE Taud {dimensionless}

OS:ComponentData,
  {53b17780-4fc4-4fc7-954e-329ec4bc22b1}, ! Handle
  Component Data 1,                       ! Name
  {260e79f1-7311-4814-ab19-597188f016f7}, ! UUID
  {260f6b31-133a-4f2d-bf69-b162e10ec89c}, ! Version UUID
  1366310677,                             ! Creation Timestamp
  1366310677,                             ! Version Timestamp
  {e31e3b07-8067-4f07-90ac-127b25784881}; ! Name of Object 1

