
OS:Version,
  {0852b78d-4f2f-468a-8d31-af736b40f7fe}, ! Handle
  0.9.3;                                  ! Version Identifier

OS:SizingPeriod:DesignDay,
  {f1cb6a74-ffa4-4762-a0f5-1988c14a9408}, ! Handle
  LANSING Ann Clg 1% Condns WB=>MDB,      ! Name
  28.3,                                   ! Maximum Dry-Bulb Temperature {C}
  12,                                     ! Daily Dry-Bulb Temperature Range {deltaC}
  23.7,                                   ! Humidity Indicating Conditions at Maximum Dry-Bulb {BasedOnField A3}
  98287,                                  ! Barometric Pressure {Pa}
  5.6,                                    ! Wind Speed {m/s}
  240,                                    ! Wind Direction {deg}
  0,                                      ! Sky Clearness
  0,                                      ! Rain Indicator
  0,                                      ! Snow Indicator
  21,                                     ! Day of Month
  7,                                      ! Month
  SummerDesignDay,                        ! Day Type
  0,                                      ! Daylight Saving Time Indicator
  Wetbulb,                                ! Humidity Indicating Type
  ,                                       ! Humidity Indicating Day Schedule Name
  DefaultMultipliers,                     ! Dry-Bulb Temperature Range Modifier Type
  ,                                       ! Dry-Bulb Temperature Range Modifier Schedule Name
  ASHRAETau,                              ! Solar Model Indicator
  ,                                       ! Beam Solar Day Schedule Name
  ,                                       ! Diffuse Solar Day Schedule Name
  0.429,                                  ! ASHRAE Taub {dimensionless}
  2.133;                                  ! ASHRAE Taud {dimensionless}

OS:ComponentData,
  {aa4614ba-4caa-4d92-8d11-5df72b09ccca}, ! Handle
  Component Data 1,                       ! Name
  {8ab125bb-1ff1-4815-86d8-c2c21a167528}, ! UUID
  {0c65bad9-3804-40a7-b862-15270e748171}, ! Version UUID
  1366308056,                             ! Creation Timestamp
  1366308056,                             ! Version Timestamp
  {f1cb6a74-ffa4-4762-a0f5-1988c14a9408}; ! Name of Object 1

