
OS:Version,
  {738f20e1-2319-46cb-9d83-ea5aaca77479}, ! Handle
  0.9.3;                                  ! Version Identifier

OS:SizingPeriod:DesignDay,
  {5c4ffe46-c76e-4536-9c8d-b7cc14b8b617}, ! Handle
  Detroit City Airport Ann Clg .4% Condns DB=>MWB, ! Name
  32.7,                                   ! Maximum Dry-Bulb Temperature {C}
  9.7,                                    ! Daily Dry-Bulb Temperature Range {deltaC}
  23.2,                                   ! Humidity Indicating Conditions at Maximum Dry-Bulb {BasedOnField A3}
  99063,                                  ! Barometric Pressure {Pa}
  5,                                      ! Wind Speed {m/s}
  230,                                    ! Wind Direction {deg}
  0,                                      ! Sky Clearness
  0,                                      ! Rain Indicator
  0,                                      ! Snow Indicator
  21,                                     ! Day of Month
  7,                                      ! Month
  SummerDesignDay,                        ! Day Type
  0,                                      ! Daylight Saving Time Indicator
  Wetbulb,                                ! Humidity Indicating Type
  ,                                       ! Humidity Indicating Day Schedule Name
  DefaultMultipliers,                     ! Dry-Bulb Temperature Range Modifier Type
  ,                                       ! Dry-Bulb Temperature Range Modifier Schedule Name
  ASHRAETau,                              ! Solar Model Indicator
  ,                                       ! Beam Solar Day Schedule Name
  ,                                       ! Diffuse Solar Day Schedule Name
  0.481,                                  ! ASHRAE Taub {dimensionless}
  1.939;                                  ! ASHRAE Taud {dimensionless}

OS:ComponentData,
  {5b2156a3-59c5-46b3-a231-5d86149aca66}, ! Handle
  Component Data 1,                       ! Name
  {cdddfb0a-c4a6-4a57-9833-3625be30ac9f}, ! UUID
  {9db29af6-2f88-4a88-aedf-074ce16a9a27}, ! Version UUID
  1366307976,                             ! Creation Timestamp
  1366307976,                             ! Version Timestamp
  {5c4ffe46-c76e-4536-9c8d-b7cc14b8b617}; ! Name of Object 1

