
OS:Version,
  {cafa34db-16cf-42c0-be32-63b0f3ef20a2}, ! Handle
  0.9.3;                                  ! Version Identifier

OS:SizingPeriod:DesignDay,
  {ddf9478f-dab4-46a8-b235-3e68080316f7}, ! Handle
  DODGE_CITY Ann Clg 1% Condns DB=>MWB,   ! Name
  36.2,                                   ! Maximum Dry-Bulb Temperature {C}
  13.9,                                   ! Daily Dry-Bulb Temperature Range {deltaC}
  21.1,                                   ! Humidity Indicating Conditions at Maximum Dry-Bulb {BasedOnField A3}
  92221,                                  ! Barometric Pressure {Pa}
  7.4,                                    ! Wind Speed {m/s}
  180,                                    ! Wind Direction {deg}
  0,                                      ! Sky Clearness
  0,                                      ! Rain Indicator
  0,                                      ! Snow Indicator
  21,                                     ! Day of Month
  7,                                      ! Month
  SummerDesignDay,                        ! Day Type
  0,                                      ! Daylight Saving Time Indicator
  Wetbulb,                                ! Humidity Indicating Type
  ,                                       ! Humidity Indicating Day Schedule Name
  DefaultMultipliers,                     ! Dry-Bulb Temperature Range Modifier Type
  ,                                       ! Dry-Bulb Temperature Range Modifier Schedule Name
  ASHRAETau,                              ! Solar Model Indicator
  ,                                       ! Beam Solar Day Schedule Name
  ,                                       ! Diffuse Solar Day Schedule Name
  0.419,                                  ! ASHRAE Taub {dimensionless}
  2.142;                                  ! ASHRAE Taud {dimensionless}

OS:ComponentData,
  {5b752d49-61c6-415f-bb82-a5f3fdb12f16}, ! Handle
  Component Data 1,                       ! Name
  {850e7089-3da0-4323-bbe9-731f72f866fd}, ! UUID
  {64b1687a-b0eb-40a7-8f95-55d25aea0e68}, ! Version UUID
  1366307505,                             ! Creation Timestamp
  1366307505,                             ! Version Timestamp
  {ddf9478f-dab4-46a8-b235-3e68080316f7}; ! Name of Object 1

