
OS:Version,
  {bce015f7-67bc-46b2-b945-5a3d05b2d9d7}, ! Handle
  0.9.3;                                  ! Version Identifier

OS:SizingPeriod:DesignDay,
  {af1f9fb8-d82d-4e71-88e4-4e175454c9f9}, ! Handle
  Anvik Ann Clg 2% Condns Enth=>MDB,      ! Name
  18.2,                                   ! Maximum Dry-Bulb Temperature {C}
  8.2,                                    ! Daily Dry-Bulb Temperature Range {deltaC}
  36900,                                  ! Humidity Indicating Conditions at Maximum Dry-Bulb {BasedOnField A3}
  100141,                                 ! Barometric Pressure {Pa}
  2,                                      ! Wind Speed {m/s}
  10,                                     ! Wind Direction {deg}
  0,                                      ! Sky Clearness
  0,                                      ! Rain Indicator
  0,                                      ! Snow Indicator
  21,                                     ! Day of Month
  7,                                      ! Month
  SummerDesignDay,                        ! Day Type
  0,                                      ! Daylight Saving Time Indicator
  Enthalpy,                               ! Humidity Indicating Type
  ,                                       ! Humidity Indicating Day Schedule Name
  DefaultMultipliers,                     ! Dry-Bulb Temperature Range Modifier Type
  ,                                       ! Dry-Bulb Temperature Range Modifier Schedule Name
  ASHRAETau,                              ! Solar Model Indicator
  ,                                       ! Beam Solar Day Schedule Name
  ,                                       ! Diffuse Solar Day Schedule Name
  0.369,                                  ! ASHRAE Taub {dimensionless}
  2.27;                                   ! ASHRAE Taud {dimensionless}

OS:ComponentData,
  {4b1555e2-acd0-44a0-b712-3b6f0322608c}, ! Handle
  Component Data 1,                       ! Name
  {b9fffdcc-af30-4654-98e0-0b7b784cb9cc}, ! UUID
  {0170de21-a1d5-42b4-a64d-b0ec4906f7e4}, ! Version UUID
  1366304732,                             ! Creation Timestamp
  1366304732,                             ! Version Timestamp
  {af1f9fb8-d82d-4e71-88e4-4e175454c9f9}; ! Name of Object 1

