
OS:Version,
  {ded9ba9d-1c4e-4d87-9e14-7141d244ae05}, ! Handle
  0.9.3;                                  ! Version Identifier

OS:SizingPeriod:DesignDay,
  {2a3797f5-d3e2-48d0-86ab-c34b39c51c7d}, ! Handle
  Grand Junction Walker Field Ann Clg 2% Condns DP=>MDB, ! Name
  21.5,                                   ! Maximum Dry-Bulb Temperature {C}
  15.3,                                   ! Daily Dry-Bulb Temperature Range {deltaC}
  13.7,                                   ! Humidity Indicating Conditions at Maximum Dry-Bulb {BasedOnField A3}
  84816,                                  ! Barometric Pressure {Pa}
  4.6,                                    ! Wind Speed {m/s}
  270,                                    ! Wind Direction {deg}
  0,                                      ! Sky Clearness
  0,                                      ! Rain Indicator
  0,                                      ! Snow Indicator
  21,                                     ! Day of Month
  7,                                      ! Month
  SummerDesignDay,                        ! Day Type
  0,                                      ! Daylight Saving Time Indicator
  Dewpoint,                               ! Humidity Indicating Type
  ,                                       ! Humidity Indicating Day Schedule Name
  DefaultMultipliers,                     ! Dry-Bulb Temperature Range Modifier Type
  ,                                       ! Dry-Bulb Temperature Range Modifier Schedule Name
  ASHRAETau,                              ! Solar Model Indicator
  ,                                       ! Beam Solar Day Schedule Name
  ,                                       ! Diffuse Solar Day Schedule Name
  0.41,                                   ! ASHRAE Taub {dimensionless}
  2.106;                                  ! ASHRAE Taud {dimensionless}

OS:ComponentData,
  {30150751-d626-4feb-9f90-de8683b8a755}, ! Handle
  Component Data 1,                       ! Name
  {17664485-97a9-4220-ad0b-7f4f3dcc7da5}, ! UUID
  {2c70f27d-6392-4759-a143-8e3edcd0115e}, ! Version UUID
  1366306700,                             ! Creation Timestamp
  1366306700,                             ! Version Timestamp
  {2a3797f5-d3e2-48d0-86ab-c34b39c51c7d}; ! Name of Object 1

