
OS:Version,
  {06a01243-112c-4743-9558-c30dcd4bc97b}, ! Handle
  0.9.3;                                  ! Version Identifier

OS:SizingPeriod:DesignDay,
  {201a88d4-6749-44b5-abe9-5e6b6059be0a}, ! Handle
  Colorado Springs Muni Ap Ann Htg 99.6% Condns DB, ! Name
  -18.2,                                  ! Maximum Dry-Bulb Temperature {C}
  0,                                      ! Daily Dry-Bulb Temperature Range {deltaC}
  -18.2,                                  ! Humidity Indicating Conditions at Maximum Dry-Bulb {BasedOnField A3}
  80767,                                  ! Barometric Pressure {Pa}
  2.8,                                    ! Wind Speed {m/s}
  20,                                     ! Wind Direction {deg}
  0,                                      ! Sky Clearness
  0,                                      ! Rain Indicator
  0,                                      ! Snow Indicator
  21,                                     ! Day of Month
  12,                                     ! Month
  WinterDesignDay,                        ! Day Type
  0,                                      ! Daylight Saving Time Indicator
  Wetbulb,                                ! Humidity Indicating Type
  ,                                       ! Humidity Indicating Day Schedule Name
  DefaultMultipliers,                     ! Dry-Bulb Temperature Range Modifier Type
  ,                                       ! Dry-Bulb Temperature Range Modifier Schedule Name
  ASHRAEClearSky;                         ! Solar Model Indicator

OS:ComponentData,
  {db8e0195-a507-493b-ae38-ec761ee35f73}, ! Handle
  Component Data 1,                       ! Name
  {60e5bb74-6fe0-4673-a617-712989d5afb8}, ! UUID
  {f1a6c0fd-bd5d-4cf0-ac1e-a25cdc8c8f71}, ! Version UUID
  1366306662,                             ! Creation Timestamp
  1366306662,                             ! Version Timestamp
  {201a88d4-6749-44b5-abe9-5e6b6059be0a}; ! Name of Object 1

