
OS:Version,
  {b61587fb-c058-465c-823c-7641b7e17ef0}, ! Handle
  0.9.3;                                  ! Version Identifier

OS:SizingPeriod:DesignDay,
  {bf011eea-0428-4908-a222-e32a9b22dbe2}, ! Handle
  Grand Junction Ann Htg Wind 99% Condns WS=>MCDB, ! Name
  1.3,                                    ! Maximum Dry-Bulb Temperature {C}
  0,                                      ! Daily Dry-Bulb Temperature Range {deltaC}
  1.3,                                    ! Humidity Indicating Conditions at Maximum Dry-Bulb {BasedOnField A3}
  84816,                                  ! Barometric Pressure {Pa}
  7.6,                                    ! Wind Speed {m/s}
  120,                                    ! Wind Direction {deg}
  0,                                      ! Sky Clearness
  0,                                      ! Rain Indicator
  0,                                      ! Snow Indicator
  21,                                     ! Day of Month
  1,                                      ! Month
  WinterDesignDay,                        ! Day Type
  0,                                      ! Daylight Saving Time Indicator
  Wetbulb,                                ! Humidity Indicating Type
  ,                                       ! Humidity Indicating Day Schedule Name
  DefaultMultipliers,                     ! Dry-Bulb Temperature Range Modifier Type
  ,                                       ! Dry-Bulb Temperature Range Modifier Schedule Name
  ASHRAEClearSky;                         ! Solar Model Indicator

