
OS:Version,
  {4d515cc0-d62f-478d-a4dd-9929276b6698}, ! Handle
  0.9.3;                                  ! Version Identifier

OS:SizingPeriod:DesignDay,
  {45b12f8d-aad8-45dd-a450-78180aa4d2d4}, ! Handle
  Dickinson Municipal Ap Ann Clg 2% Condns DB=>MWB, ! Name
  30,                                     ! Maximum Dry-Bulb Temperature {C}
  14.4,                                   ! Daily Dry-Bulb Temperature Range {deltaC}
  18.3,                                   ! Humidity Indicating Conditions at Maximum Dry-Bulb {BasedOnField A3}
  92210,                                  ! Barometric Pressure {Pa}
  6.3,                                    ! Wind Speed {m/s}
  150,                                    ! Wind Direction {deg}
  0,                                      ! Sky Clearness
  0,                                      ! Rain Indicator
  0,                                      ! Snow Indicator
  21,                                     ! Day of Month
  7,                                      ! Month
  SummerDesignDay,                        ! Day Type
  0,                                      ! Daylight Saving Time Indicator
  Wetbulb,                                ! Humidity Indicating Type
  ,                                       ! Humidity Indicating Day Schedule Name
  DefaultMultipliers,                     ! Dry-Bulb Temperature Range Modifier Type
  ,                                       ! Dry-Bulb Temperature Range Modifier Schedule Name
  ASHRAETau,                              ! Solar Model Indicator
  ,                                       ! Beam Solar Day Schedule Name
  ,                                       ! Diffuse Solar Day Schedule Name
  0.38,                                   ! ASHRAE Taub {dimensionless}
  2.261;                                  ! ASHRAE Taud {dimensionless}

OS:ComponentData,
  {10fb53d0-f371-4362-9514-53f35ca4cc87}, ! Handle
  Component Data 1,                       ! Name
  {730cbf39-1674-4f64-b08a-68334cc8742d}, ! UUID
  {d544fe1d-d39e-424c-ab57-7d3b2df02398}, ! Version UUID
  1366309019,                             ! Creation Timestamp
  1366309019,                             ! Version Timestamp
  {45b12f8d-aad8-45dd-a450-78180aa4d2d4}; ! Name of Object 1

