
OS:Version,
  {26edf886-705c-48f8-a138-01df5b88b4de}, ! Handle
  0.9.3;                                  ! Version Identifier

OS:SizingPeriod:DesignDay,
  {22994a4f-eee7-484e-82f4-1ec11b31a853}, ! Handle
  COLUMBIA Ann Htg Wind 99% Condns WS=>MCDB, ! Name
  10.8,                                   ! Maximum Dry-Bulb Temperature {C}
  0,                                      ! Daily Dry-Bulb Temperature Range {deltaC}
  10.8,                                   ! Humidity Indicating Conditions at Maximum Dry-Bulb {BasedOnField A3}
  100499,                                 ! Barometric Pressure {Pa}
  9.2,                                    ! Wind Speed {m/s}
  270,                                    ! Wind Direction {deg}
  0,                                      ! Sky Clearness
  0,                                      ! Rain Indicator
  0,                                      ! Snow Indicator
  21,                                     ! Day of Month
  1,                                      ! Month
  WinterDesignDay,                        ! Day Type
  0,                                      ! Daylight Saving Time Indicator
  Wetbulb,                                ! Humidity Indicating Type
  ,                                       ! Humidity Indicating Day Schedule Name
  DefaultMultipliers,                     ! Dry-Bulb Temperature Range Modifier Type
  ,                                       ! Dry-Bulb Temperature Range Modifier Schedule Name
  ASHRAEClearSky;                         ! Solar Model Indicator

OS:ComponentData,
  {edf830f3-7927-48ad-8caa-993a6670886d}, ! Handle
  Component Data 1,                       ! Name
  {e9015022-7c83-4d48-9224-80364971c1d7}, ! UUID
  {9a98d2f8-07b3-4ad9-bf51-533a86368a4e}, ! Version UUID
  1366310335,                             ! Creation Timestamp
  1366310335,                             ! Version Timestamp
  {22994a4f-eee7-484e-82f4-1ec11b31a853}; ! Name of Object 1

