
OS:Version,
  {a65e3975-a37d-4cd6-a5c2-d6753364eebb}, ! Handle
  0.9.3;                                  ! Version Identifier

OS:SizingPeriod:DesignDay,
  {b8cf0e81-45f0-46c7-908c-808658606a59}, ! Handle
  Atlanta Ann Clg 1% Condns DP=>MDB,      ! Name
  26.7,                                   ! Maximum Dry-Bulb Temperature {C}
  9.5,                                    ! Daily Dry-Bulb Temperature Range {deltaC}
  22.9,                                   ! Humidity Indicating Conditions at Maximum Dry-Bulb {BasedOnField A3}
  97598,                                  ! Barometric Pressure {Pa}
  4,                                      ! Wind Speed {m/s}
  300,                                    ! Wind Direction {deg}
  0,                                      ! Sky Clearness
  0,                                      ! Rain Indicator
  0,                                      ! Snow Indicator
  21,                                     ! Day of Month
  7,                                      ! Month
  SummerDesignDay,                        ! Day Type
  0,                                      ! Daylight Saving Time Indicator
  Dewpoint,                               ! Humidity Indicating Type
  ,                                       ! Humidity Indicating Day Schedule Name
  DefaultMultipliers,                     ! Dry-Bulb Temperature Range Modifier Type
  ,                                       ! Dry-Bulb Temperature Range Modifier Schedule Name
  ASHRAETau,                              ! Solar Model Indicator
  ,                                       ! Beam Solar Day Schedule Name
  ,                                       ! Diffuse Solar Day Schedule Name
  0.556,                                  ! ASHRAE Taub {dimensionless}
  1.779;                                  ! ASHRAE Taud {dimensionless}

OS:ComponentData,
  {0fb26426-a21d-48ee-89bf-ad080fcb8fc3}, ! Handle
  Component Data 1,                       ! Name
  {b4685e63-d2b9-438b-9f94-10d357f39b30}, ! UUID
  {db8aaa19-7bb0-4d60-853f-3b721adc7352}, ! Version UUID
  1366306976,                             ! Creation Timestamp
  1366306976,                             ! Version Timestamp
  {b8cf0e81-45f0-46c7-908c-808658606a59}; ! Name of Object 1

