
OS:Version,
  {1c7b397f-87e9-4279-af43-77d0061e8120}, ! Handle
  0.9.3;                                  ! Version Identifier

OS:SizingPeriod:DesignDay,
  {001457db-1dc0-4304-a1c0-c0cd186c5d23}, ! Handle
  Kenai Municipal Ap Ann Clg 2% Condns DB=>MWB, ! Name
  17.6,                                   ! Maximum Dry-Bulb Temperature {C}
  7.5,                                    ! Daily Dry-Bulb Temperature Range {deltaC}
  12.7,                                   ! Humidity Indicating Conditions at Maximum Dry-Bulb {BasedOnField A3}
  101013,                                 ! Barometric Pressure {Pa}
  4,                                      ! Wind Speed {m/s}
  270,                                    ! Wind Direction {deg}
  0,                                      ! Sky Clearness
  0,                                      ! Rain Indicator
  0,                                      ! Snow Indicator
  21,                                     ! Day of Month
  7,                                      ! Month
  SummerDesignDay,                        ! Day Type
  0,                                      ! Daylight Saving Time Indicator
  Wetbulb,                                ! Humidity Indicating Type
  ,                                       ! Humidity Indicating Day Schedule Name
  DefaultMultipliers,                     ! Dry-Bulb Temperature Range Modifier Type
  ,                                       ! Dry-Bulb Temperature Range Modifier Schedule Name
  ASHRAETau,                              ! Solar Model Indicator
  ,                                       ! Beam Solar Day Schedule Name
  ,                                       ! Diffuse Solar Day Schedule Name
  0.371,                                  ! ASHRAE Taub {dimensionless}
  2.246;                                  ! ASHRAE Taud {dimensionless}

OS:ComponentData,
  {6142477c-2070-4c82-aa90-bf17d0afbcbe}, ! Handle
  Component Data 1,                       ! Name
  {9b580484-0243-4eab-9636-eeb98337a9d6}, ! UUID
  {97b90a19-5ee7-4e7b-98b5-95f87879bfa0}, ! Version UUID
  1366305348,                             ! Creation Timestamp
  1366305348,                             ! Version Timestamp
  {001457db-1dc0-4304-a1c0-c0cd186c5d23}; ! Name of Object 1

