
OS:Version,
  {5eb8cfda-484b-44b6-896b-3ac123d137fe}, ! Handle
  0.9.3;                                  ! Version Identifier

OS:SizingPeriod:DesignDay,
  {5c451436-ec1f-4646-8b95-862140973b56}, ! Handle
  Hallock Ann Clg 2% Condns Enth=>MDB,    ! Name
  26.1,                                   ! Maximum Dry-Bulb Temperature {C}
  12.5,                                   ! Daily Dry-Bulb Temperature Range {deltaC}
  64700,                                  ! Humidity Indicating Conditions at Maximum Dry-Bulb {BasedOnField A3}
  98358,                                  ! Barometric Pressure {Pa}
  5.9,                                    ! Wind Speed {m/s}
  160,                                    ! Wind Direction {deg}
  0,                                      ! Sky Clearness
  0,                                      ! Rain Indicator
  0,                                      ! Snow Indicator
  21,                                     ! Day of Month
  7,                                      ! Month
  SummerDesignDay,                        ! Day Type
  0,                                      ! Daylight Saving Time Indicator
  Enthalpy,                               ! Humidity Indicating Type
  ,                                       ! Humidity Indicating Day Schedule Name
  DefaultMultipliers,                     ! Dry-Bulb Temperature Range Modifier Type
  ,                                       ! Dry-Bulb Temperature Range Modifier Schedule Name
  ASHRAETau,                              ! Solar Model Indicator
  ,                                       ! Beam Solar Day Schedule Name
  ,                                       ! Diffuse Solar Day Schedule Name
  0.405,                                  ! ASHRAE Taub {dimensionless}
  2.208;                                  ! ASHRAE Taud {dimensionless}

OS:ComponentData,
  {7f7ab35f-aa0e-4b68-b8a2-0c6699518e4a}, ! Handle
  Component Data 1,                       ! Name
  {73ddedc8-81ff-498e-894a-e147b93e6401}, ! UUID
  {ed0a9517-ae40-4bc0-91cd-32dae0a08425}, ! Version UUID
  1366308252,                             ! Creation Timestamp
  1366308252,                             ! Version Timestamp
  {5c451436-ec1f-4646-8b95-862140973b56}; ! Name of Object 1

