
OS:Version,
  {e6cc051f-fc8e-4566-a6f0-be29a150dc02}, ! Handle
  0.9.3;                                  ! Version Identifier

OS:SizingPeriod:DesignDay,
  {543b35aa-3a41-473b-8d1b-1649e3773f8c}, ! Handle
  LOS_ANGELES Ann Clg 1% Condns WB=>MDB,  ! Name
  24.5,                                   ! Maximum Dry-Bulb Temperature {C}
  6,                                      ! Daily Dry-Bulb Temperature Range {deltaC}
  20.6,                                   ! Humidity Indicating Conditions at Maximum Dry-Bulb {BasedOnField A3}
  100941,                                 ! Barometric Pressure {Pa}
  4.1,                                    ! Wind Speed {m/s}
  250,                                    ! Wind Direction {deg}
  0,                                      ! Sky Clearness
  0,                                      ! Rain Indicator
  0,                                      ! Snow Indicator
  21,                                     ! Day of Month
  8,                                      ! Month
  SummerDesignDay,                        ! Day Type
  0,                                      ! Daylight Saving Time Indicator
  Wetbulb,                                ! Humidity Indicating Type
  ,                                       ! Humidity Indicating Day Schedule Name
  DefaultMultipliers,                     ! Dry-Bulb Temperature Range Modifier Type
  ,                                       ! Dry-Bulb Temperature Range Modifier Schedule Name
  ASHRAETau,                              ! Solar Model Indicator
  ,                                       ! Beam Solar Day Schedule Name
  ,                                       ! Diffuse Solar Day Schedule Name
  0.44,                                   ! ASHRAE Taub {dimensionless}
  2.108;                                  ! ASHRAE Taud {dimensionless}

OS:ComponentData,
  {cab563ec-6d1c-461a-97d7-788aaf1bf054}, ! Handle
  Component Data 1,                       ! Name
  {dba20efa-e804-4fbd-b6f1-9825fd4c781e}, ! UUID
  {6ece4227-2f4b-400b-a250-4aadc2a37554}, ! Version UUID
  1366306478,                             ! Creation Timestamp
  1366306478,                             ! Version Timestamp
  {543b35aa-3a41-473b-8d1b-1649e3773f8c}; ! Name of Object 1

