
OS:Version,
  {ba8db871-bd2b-4efe-83c9-2f2b1076159e}, ! Handle
  0.9.3;                                  ! Version Identifier

OS:SizingPeriod:DesignDay,
  {c202182a-41e2-4846-8a06-17eab1e80c26}, ! Handle
  Lihue Airport Ann Clg 2% Condns Enth=>MDB, ! Name
  27.5,                                   ! Maximum Dry-Bulb Temperature {C}
  4.8,                                    ! Daily Dry-Bulb Temperature Range {deltaC}
  73200,                                  ! Humidity Indicating Conditions at Maximum Dry-Bulb {BasedOnField A3}
  100953,                                 ! Barometric Pressure {Pa}
  6.4,                                    ! Wind Speed {m/s}
  60,                                     ! Wind Direction {deg}
  0,                                      ! Sky Clearness
  0,                                      ! Rain Indicator
  0,                                      ! Snow Indicator
  21,                                     ! Day of Month
  8,                                      ! Month
  SummerDesignDay,                        ! Day Type
  0,                                      ! Daylight Saving Time Indicator
  Enthalpy,                               ! Humidity Indicating Type
  ,                                       ! Humidity Indicating Day Schedule Name
  DefaultMultipliers,                     ! Dry-Bulb Temperature Range Modifier Type
  ,                                       ! Dry-Bulb Temperature Range Modifier Schedule Name
  ASHRAETau,                              ! Solar Model Indicator
  ,                                       ! Beam Solar Day Schedule Name
  ,                                       ! Diffuse Solar Day Schedule Name
  0.385,                                  ! ASHRAE Taub {dimensionless}
  2.509;                                  ! ASHRAE Taud {dimensionless}

OS:ComponentData,
  {b3ae9d1d-2c68-4197-83e9-a14148fb0ba0}, ! Handle
  Component Data 1,                       ! Name
  {93efb0de-e502-40a2-8b50-9de85b705ebe}, ! UUID
  {b0090f97-dd39-44ae-93d5-855f14e57dfb}, ! Version UUID
  1366307121,                             ! Creation Timestamp
  1366307121,                             ! Version Timestamp
  {c202182a-41e2-4846-8a06-17eab1e80c26}; ! Name of Object 1

