
OS:Version,
  {eaad8adc-ae1e-40af-be0e-e450365384cd}, ! Handle
  0.9.3;                                  ! Version Identifier

OS:SizingPeriod:DesignDay,
  {ff9533ad-90de-4b1c-baaa-f8b4dd2033bf}, ! Handle
  Huntington Tri State Arpt Ann Hum_n 99.6% Condns DP=>MCDB, ! Name
  -10.8,                                  ! Maximum Dry-Bulb Temperature {C}
  0,                                      ! Daily Dry-Bulb Temperature Range {deltaC}
  -18.8,                                  ! Humidity Indicating Conditions at Maximum Dry-Bulb {BasedOnField A3}
  98322,                                  ! Barometric Pressure {Pa}
  2.9,                                    ! Wind Speed {m/s}
  240,                                    ! Wind Direction {deg}
  0,                                      ! Sky Clearness
  0,                                      ! Rain Indicator
  0,                                      ! Snow Indicator
  21,                                     ! Day of Month
  1,                                      ! Month
  WinterDesignDay,                        ! Day Type
  0,                                      ! Daylight Saving Time Indicator
  Dewpoint,                               ! Humidity Indicating Type
  ,                                       ! Humidity Indicating Day Schedule Name
  DefaultMultipliers,                     ! Dry-Bulb Temperature Range Modifier Type
  ,                                       ! Dry-Bulb Temperature Range Modifier Schedule Name
  ASHRAEClearSky;                         ! Solar Model Indicator

OS:ComponentData,
  {9c7ea7bf-4ebe-4ecd-b665-7bb0f8d6a181}, ! Handle
  Component Data 1,                       ! Name
  {d25dc409-a61f-475a-bc33-580c0ce02620}, ! UUID
  {677956a0-c15d-4051-b11a-c3c37f361c79}, ! Version UUID
  1366311651,                             ! Creation Timestamp
  1366311651,                             ! Version Timestamp
  {ff9533ad-90de-4b1c-baaa-f8b4dd2033bf}; ! Name of Object 1

