
OS:Version,
  {d05eb5f2-0fab-40fc-91fc-751ad591486e}, ! Handle
  0.9.3;                                  ! Version Identifier

OS:SizingPeriod:DesignDay,
  {be9add9b-6d22-481d-8c6f-345a352456de}, ! Handle
  CORPUS_CHRISTI Ann Clg 1% Condns WB=>MDB, ! Name
  31.4,                                   ! Maximum Dry-Bulb Temperature {C}
  10.1,                                   ! Daily Dry-Bulb Temperature Range {deltaC}
  26.8,                                   ! Humidity Indicating Conditions at Maximum Dry-Bulb {BasedOnField A3}
  101169,                                 ! Barometric Pressure {Pa}
  6.6,                                    ! Wind Speed {m/s}
  140,                                    ! Wind Direction {deg}
  0,                                      ! Sky Clearness
  0,                                      ! Rain Indicator
  0,                                      ! Snow Indicator
  21,                                     ! Day of Month
  8,                                      ! Month
  SummerDesignDay,                        ! Day Type
  0,                                      ! Daylight Saving Time Indicator
  Wetbulb,                                ! Humidity Indicating Type
  ,                                       ! Humidity Indicating Day Schedule Name
  DefaultMultipliers,                     ! Dry-Bulb Temperature Range Modifier Type
  ,                                       ! Dry-Bulb Temperature Range Modifier Schedule Name
  ASHRAETau,                              ! Solar Model Indicator
  ,                                       ! Beam Solar Day Schedule Name
  ,                                       ! Diffuse Solar Day Schedule Name
  0.463,                                  ! ASHRAE Taub {dimensionless}
  2.116;                                  ! ASHRAE Taud {dimensionless}

OS:ComponentData,
  {1d6fe2f6-bfc3-4466-89d6-c488bf200550}, ! Handle
  Component Data 1,                       ! Name
  {98889e2f-68be-44ac-b9d9-d7a216dd5daf}, ! UUID
  {1abf98f5-c42b-4c45-ae60-778cdd1994ae}, ! Version UUID
  1366310622,                             ! Creation Timestamp
  1366310622,                             ! Version Timestamp
  {be9add9b-6d22-481d-8c6f-345a352456de}; ! Name of Object 1

