
OS:Version,
  {72c3e88a-8bec-4c86-a8fe-c161197464a2}, ! Handle
  0.9.3;                                  ! Version Identifier

OS:SizingPeriod:DesignDay,
  {d2aaaa3d-a0ed-4e9e-b3f3-0e6ba5707f6c}, ! Handle
  Albert Lea  Awos Ann Clg .4% Condns WB=>MDB, ! Name
  29.4,                                   ! Maximum Dry-Bulb Temperature {C}
  9.9,                                    ! Daily Dry-Bulb Temperature Range {deltaC}
  25.1,                                   ! Humidity Indicating Conditions at Maximum Dry-Bulb {BasedOnField A3}
  96808,                                  ! Barometric Pressure {Pa}
  4,                                      ! Wind Speed {m/s}
  180,                                    ! Wind Direction {deg}
  0,                                      ! Sky Clearness
  0,                                      ! Rain Indicator
  0,                                      ! Snow Indicator
  21,                                     ! Day of Month
  7,                                      ! Month
  SummerDesignDay,                        ! Day Type
  0,                                      ! Daylight Saving Time Indicator
  Wetbulb,                                ! Humidity Indicating Type
  ,                                       ! Humidity Indicating Day Schedule Name
  DefaultMultipliers,                     ! Dry-Bulb Temperature Range Modifier Type
  ,                                       ! Dry-Bulb Temperature Range Modifier Schedule Name
  ASHRAETau,                              ! Solar Model Indicator
  ,                                       ! Beam Solar Day Schedule Name
  ,                                       ! Diffuse Solar Day Schedule Name
  0.407,                                  ! ASHRAE Taub {dimensionless}
  2.214;                                  ! ASHRAE Taud {dimensionless}

OS:ComponentData,
  {761bf9db-a2a3-423d-8601-dc73262a30a1}, ! Handle
  Component Data 1,                       ! Name
  {783f381e-aff3-4748-a4c4-235bf9659136}, ! UUID
  {ceac9679-947b-417d-b5eb-d24a06acfc07}, ! Version UUID
  1366308140,                             ! Creation Timestamp
  1366308140,                             ! Version Timestamp
  {d2aaaa3d-a0ed-4e9e-b3f3-0e6ba5707f6c}; ! Name of Object 1

