
OS:Version,
  {b56f1b25-f882-4503-8725-0ef7eb5a2598}, ! Handle
  0.9.3;                                  ! Version Identifier

OS:SizingPeriod:DesignDay,
  {2f778a8c-5c08-4553-beb8-d1feb6ca4728}, ! Handle
  Bismarck Municipal Arpt  Isis Ann Clg 2% Condns DP=>MDB, ! Name
  24.3,                                   ! Maximum Dry-Bulb Temperature {C}
  14.2,                                   ! Daily Dry-Bulb Temperature Range {deltaC}
  18.7,                                   ! Humidity Indicating Conditions at Maximum Dry-Bulb {BasedOnField A3}
  95438,                                  ! Barometric Pressure {Pa}
  6,                                      ! Wind Speed {m/s}
  160,                                    ! Wind Direction {deg}
  0,                                      ! Sky Clearness
  0,                                      ! Rain Indicator
  0,                                      ! Snow Indicator
  21,                                     ! Day of Month
  7,                                      ! Month
  SummerDesignDay,                        ! Day Type
  0,                                      ! Daylight Saving Time Indicator
  Dewpoint,                               ! Humidity Indicating Type
  ,                                       ! Humidity Indicating Day Schedule Name
  DefaultMultipliers,                     ! Dry-Bulb Temperature Range Modifier Type
  ,                                       ! Dry-Bulb Temperature Range Modifier Schedule Name
  ASHRAETau,                              ! Solar Model Indicator
  ,                                       ! Beam Solar Day Schedule Name
  ,                                       ! Diffuse Solar Day Schedule Name
  0.393,                                  ! ASHRAE Taub {dimensionless}
  2.249;                                  ! ASHRAE Taud {dimensionless}

OS:ComponentData,
  {b15ad1af-193f-4a40-9375-b7094d697806}, ! Handle
  Component Data 1,                       ! Name
  {57f29703-3442-43c1-a07a-26b631eee298}, ! UUID
  {9152b135-9c2a-4ad3-9d9a-3860cbaa7f1d}, ! Version UUID
  1366309007,                             ! Creation Timestamp
  1366309007,                             ! Version Timestamp
  {2f778a8c-5c08-4553-beb8-d1feb6ca4728}; ! Name of Object 1

