
OS:Version,
  {0cdf6518-de3c-4dda-badc-020c043d2400}, ! Handle
  0.9.3;                                  ! Version Identifier

OS:SizingPeriod:DesignDay,
  {c2a7abae-7c6e-4da1-82fa-0b57a3b5f4b8}, ! Handle
  Atlantic Ann Clg .4% Condns DB=>MWB,    ! Name
  34,                                     ! Maximum Dry-Bulb Temperature {C}
  11.2,                                   ! Daily Dry-Bulb Temperature Range {deltaC}
  25.8,                                   ! Humidity Indicating Conditions at Maximum Dry-Bulb {BasedOnField A3}
  97074,                                  ! Barometric Pressure {Pa}
  5.1,                                    ! Wind Speed {m/s}
  190,                                    ! Wind Direction {deg}
  0,                                      ! Sky Clearness
  0,                                      ! Rain Indicator
  0,                                      ! Snow Indicator
  21,                                     ! Day of Month
  7,                                      ! Month
  SummerDesignDay,                        ! Day Type
  0,                                      ! Daylight Saving Time Indicator
  Wetbulb,                                ! Humidity Indicating Type
  ,                                       ! Humidity Indicating Day Schedule Name
  DefaultMultipliers,                     ! Dry-Bulb Temperature Range Modifier Type
  ,                                       ! Dry-Bulb Temperature Range Modifier Schedule Name
  ASHRAETau,                              ! Solar Model Indicator
  ,                                       ! Beam Solar Day Schedule Name
  ,                                       ! Diffuse Solar Day Schedule Name
  0.416,                                  ! ASHRAE Taub {dimensionless}
  2.204;                                  ! ASHRAE Taud {dimensionless}

OS:ComponentData,
  {9583df30-51bb-4f74-8c6e-644848ec2cc0}, ! Handle
  Component Data 1,                       ! Name
  {8c738e5e-1964-4071-9afb-6d897d85999c}, ! UUID
  {cfa12d4f-ed38-47d9-8a13-71a9fb3402bc}, ! Version UUID
  1366307134,                             ! Creation Timestamp
  1366307134,                             ! Version Timestamp
  {c2a7abae-7c6e-4da1-82fa-0b57a3b5f4b8}; ! Name of Object 1

