
OS:Version,
  {8bae3b12-c762-4da0-b611-21ca0a195ce6}, ! Handle
  0.9.3;                                  ! Version Identifier

OS:SizingPeriod:DesignDay,
  {0849fef2-6d3d-42c3-bb17-be6c100e7313}, ! Handle
  Jamestown Municipal Arpt Ann Clg 1% Condns WB=>MDB, ! Name
  28.5,                                   ! Maximum Dry-Bulb Temperature {C}
  12.5,                                   ! Daily Dry-Bulb Temperature Range {deltaC}
  22.6,                                   ! Humidity Indicating Conditions at Maximum Dry-Bulb {BasedOnField A3}
  95977,                                  ! Barometric Pressure {Pa}
  5.7,                                    ! Wind Speed {m/s}
  170,                                    ! Wind Direction {deg}
  0,                                      ! Sky Clearness
  0,                                      ! Rain Indicator
  0,                                      ! Snow Indicator
  21,                                     ! Day of Month
  7,                                      ! Month
  SummerDesignDay,                        ! Day Type
  0,                                      ! Daylight Saving Time Indicator
  Wetbulb,                                ! Humidity Indicating Type
  ,                                       ! Humidity Indicating Day Schedule Name
  DefaultMultipliers,                     ! Dry-Bulb Temperature Range Modifier Type
  ,                                       ! Dry-Bulb Temperature Range Modifier Schedule Name
  ASHRAETau,                              ! Solar Model Indicator
  ,                                       ! Beam Solar Day Schedule Name
  ,                                       ! Diffuse Solar Day Schedule Name
  0.384,                                  ! ASHRAE Taub {dimensionless}
  2.288;                                  ! ASHRAE Taud {dimensionless}

OS:ComponentData,
  {8b3fe0aa-2a12-498f-943f-5d156c7fe7a1}, ! Handle
  Component Data 1,                       ! Name
  {d88608d1-4a9a-4083-883c-a47627d6ca04}, ! UUID
  {0084e135-34e3-472c-91a7-bdf6b8628221}, ! Version UUID
  1366309051,                             ! Creation Timestamp
  1366309051,                             ! Version Timestamp
  {0849fef2-6d3d-42c3-bb17-be6c100e7313}; ! Name of Object 1

