
OS:Version,
  {5c3a1614-d6a6-49a3-a6ec-7ddbe5291c49}, ! Handle
  0.9.3;                                  ! Version Identifier

OS:SizingPeriod:DesignDay,
  {2c595d29-4a74-4b49-bbde-82bc72387389}, ! Handle
  Fresno Yosemite Intl Ap Ann Hum_n 99.6% Condns DP=>MCDB, ! Name
  10,                                     ! Maximum Dry-Bulb Temperature {C}
  0,                                      ! Daily Dry-Bulb Temperature Range {deltaC}
  -4.1,                                   ! Humidity Indicating Conditions at Maximum Dry-Bulb {BasedOnField A3}
  100106,                                 ! Barometric Pressure {Pa}
  1.2,                                    ! Wind Speed {m/s}
  80,                                     ! Wind Direction {deg}
  0,                                      ! Sky Clearness
  0,                                      ! Rain Indicator
  0,                                      ! Snow Indicator
  21,                                     ! Day of Month
  12,                                     ! Month
  WinterDesignDay,                        ! Day Type
  0,                                      ! Daylight Saving Time Indicator
  Dewpoint,                               ! Humidity Indicating Type
  ,                                       ! Humidity Indicating Day Schedule Name
  DefaultMultipliers,                     ! Dry-Bulb Temperature Range Modifier Type
  ,                                       ! Dry-Bulb Temperature Range Modifier Schedule Name
  ASHRAEClearSky;                         ! Solar Model Indicator

OS:ComponentData,
  {73bd4ce4-29e0-4a1f-b5ac-dde84cd072a9}, ! Handle
  Component Data 1,                       ! Name
  {d631f091-84aa-4d6e-a78e-78101aa70540}, ! UUID
  {abb5481a-a0d5-4098-a3a5-a4746c57e5ba}, ! Version UUID
  1366306439,                             ! Creation Timestamp
  1366306439,                             ! Version Timestamp
  {2c595d29-4a74-4b49-bbde-82bc72387389}; ! Name of Object 1

