
OS:Version,
  {d1d5d244-1143-4cd0-bcec-9fead6ba0272}, ! Handle
  0.9.3;                                  ! Version Identifier

OS:SizingPeriod:DesignDay,
  {11bdb7b4-6091-4b9a-9333-cfb66b721d45}, ! Handle
  Adak NAS Ann Hum_n 99% Condns DP=>MCDB, ! Name
  -3.2,                                   ! Maximum Dry-Bulb Temperature {C}
  0,                                      ! Daily Dry-Bulb Temperature Range {deltaC}
  -11.2,                                  ! Humidity Indicating Conditions at Maximum Dry-Bulb {BasedOnField A3}
  101265,                                 ! Barometric Pressure {Pa}
  2.1,                                    ! Wind Speed {m/s}
  200,                                    ! Wind Direction {deg}
  0,                                      ! Sky Clearness
  0,                                      ! Rain Indicator
  0,                                      ! Snow Indicator
  21,                                     ! Day of Month
  1,                                      ! Month
  WinterDesignDay,                        ! Day Type
  0,                                      ! Daylight Saving Time Indicator
  Dewpoint,                               ! Humidity Indicating Type
  ,                                       ! Humidity Indicating Day Schedule Name
  DefaultMultipliers,                     ! Dry-Bulb Temperature Range Modifier Type
  ,                                       ! Dry-Bulb Temperature Range Modifier Schedule Name
  ASHRAEClearSky;                         ! Solar Model Indicator

