
OS:Version,
  {3cefcad9-8137-494b-9bd3-933c4692e0f3}, ! Handle
  0.9.3;                                  ! Version Identifier

OS:SizingPeriod:DesignDay,
  {654a68f7-72fc-4a8b-8fd2-cd0da8505ed7}, ! Handle
  Bentonville  Awos Ann Htg Wind 99% Condns WS=>MCDB, ! Name
  9.3,                                    ! Maximum Dry-Bulb Temperature {C}
  0,                                      ! Daily Dry-Bulb Temperature Range {deltaC}
  9.3,                                    ! Humidity Indicating Conditions at Maximum Dry-Bulb {BasedOnField A3}
  96669,                                  ! Barometric Pressure {Pa}
  9,                                      ! Wind Speed {m/s}
  310,                                    ! Wind Direction {deg}
  0,                                      ! Sky Clearness
  0,                                      ! Rain Indicator
  0,                                      ! Snow Indicator
  21,                                     ! Day of Month
  1,                                      ! Month
  WinterDesignDay,                        ! Day Type
  0,                                      ! Daylight Saving Time Indicator
  Wetbulb,                                ! Humidity Indicating Type
  ,                                       ! Humidity Indicating Day Schedule Name
  DefaultMultipliers,                     ! Dry-Bulb Temperature Range Modifier Type
  ,                                       ! Dry-Bulb Temperature Range Modifier Schedule Name
  ASHRAEClearSky;                         ! Solar Model Indicator

OS:ComponentData,
  {c62daaaf-3558-421a-a683-fca9840d9707}, ! Handle
  Component Data 1,                       ! Name
  {fa4fab28-7db5-48bf-a161-0845ccad4356}, ! UUID
  {bfed1947-f002-4370-8f00-28af36ea5166}, ! Version UUID
  1366306195,                             ! Creation Timestamp
  1366306195,                             ! Version Timestamp
  {654a68f7-72fc-4a8b-8fd2-cd0da8505ed7}; ! Name of Object 1

