
OS:Version,
  {b877a356-5da4-48e3-a484-fc9ac7ac3352}, ! Handle
  0.9.3;                                  ! Version Identifier

OS:SizingPeriod:DesignDay,
  {b3a5fac2-74c6-43d4-8af3-c8425ddc4b9d}, ! Handle
  Huntington Tri State Arpt Ann Clg .4% Condns DB=>MWB, ! Name
  33.3,                                   ! Maximum Dry-Bulb Temperature {C}
  10.5,                                   ! Daily Dry-Bulb Temperature Range {deltaC}
  23.2,                                   ! Humidity Indicating Conditions at Maximum Dry-Bulb {BasedOnField A3}
  98322,                                  ! Barometric Pressure {Pa}
  3.3,                                    ! Wind Speed {m/s}
  260,                                    ! Wind Direction {deg}
  0,                                      ! Sky Clearness
  0,                                      ! Rain Indicator
  0,                                      ! Snow Indicator
  21,                                     ! Day of Month
  7,                                      ! Month
  SummerDesignDay,                        ! Day Type
  0,                                      ! Daylight Saving Time Indicator
  Wetbulb,                                ! Humidity Indicating Type
  ,                                       ! Humidity Indicating Day Schedule Name
  DefaultMultipliers,                     ! Dry-Bulb Temperature Range Modifier Type
  ,                                       ! Dry-Bulb Temperature Range Modifier Schedule Name
  ASHRAETau,                              ! Solar Model Indicator
  ,                                       ! Beam Solar Day Schedule Name
  ,                                       ! Diffuse Solar Day Schedule Name
  0.512,                                  ! ASHRAE Taub {dimensionless}
  1.865;                                  ! ASHRAE Taud {dimensionless}

OS:ComponentData,
  {626546c9-29b8-42ac-a10e-8bcd99e30f2c}, ! Handle
  Component Data 1,                       ! Name
  {7a2dfe50-aaa9-4a05-ab29-460be316b858}, ! UUID
  {ae6f675c-937b-4863-9af6-edd8422ffeae}, ! Version UUID
  1366311652,                             ! Creation Timestamp
  1366311652,                             ! Version Timestamp
  {b3a5fac2-74c6-43d4-8af3-c8425ddc4b9d}; ! Name of Object 1

