
OS:Version,
  {be32f738-af59-4543-9c20-f91b21262049}, ! Handle
  0.9.3;                                  ! Version Identifier

OS:SizingPeriod:DesignDay,
  {16c19ae2-24f0-4717-8ae9-4ae8acfe2553}, ! Handle
  Columbus Metropolitan Arpt Ann Clg 1% Condns Enth=>MDB, ! Name
  31.2,                                   ! Maximum Dry-Bulb Temperature {C}
  10.1,                                   ! Daily Dry-Bulb Temperature Range {deltaC}
  77600,                                  ! Humidity Indicating Conditions at Maximum Dry-Bulb {BasedOnField A3}
  99892,                                  ! Barometric Pressure {Pa}
  3.7,                                    ! Wind Speed {m/s}
  270,                                    ! Wind Direction {deg}
  0,                                      ! Sky Clearness
  0,                                      ! Rain Indicator
  0,                                      ! Snow Indicator
  21,                                     ! Day of Month
  7,                                      ! Month
  SummerDesignDay,                        ! Day Type
  0,                                      ! Daylight Saving Time Indicator
  Enthalpy,                               ! Humidity Indicating Type
  ,                                       ! Humidity Indicating Day Schedule Name
  DefaultMultipliers,                     ! Dry-Bulb Temperature Range Modifier Type
  ,                                       ! Dry-Bulb Temperature Range Modifier Schedule Name
  ASHRAETau,                              ! Solar Model Indicator
  ,                                       ! Beam Solar Day Schedule Name
  ,                                       ! Diffuse Solar Day Schedule Name
  0.564,                                  ! ASHRAE Taub {dimensionless}
  1.778;                                  ! ASHRAE Taud {dimensionless}

OS:ComponentData,
  {c66ba3c0-003f-4e59-acfd-a3885497220e}, ! Handle
  Component Data 1,                       ! Name
  {3fcc686f-4686-4622-b5c1-fd169ac34e14}, ! UUID
  {48efa71c-1544-4742-b5d3-89671012d197}, ! Version UUID
  1366307005,                             ! Creation Timestamp
  1366307005,                             ! Version Timestamp
  {16c19ae2-24f0-4717-8ae9-4ae8acfe2553}; ! Name of Object 1

