
OS:Version,
  {8882c393-fa74-4f8d-b4d3-b25853386125}, ! Handle
  0.9.3;                                  ! Version Identifier

OS:SizingPeriod:DesignDay,
  {62f31a10-9b27-4d5b-9c62-7786d9f680b9}, ! Handle
  Houston Bush Intercontinental Ann Clg .4% Condns DB=>MWB, ! Name
  36,                                     ! Maximum Dry-Bulb Temperature {C}
  10.1,                                   ! Daily Dry-Bulb Temperature Range {deltaC}
  24.8,                                   ! Humidity Indicating Conditions at Maximum Dry-Bulb {BasedOnField A3}
  100977,                                 ! Barometric Pressure {Pa}
  3.5,                                    ! Wind Speed {m/s}
  170,                                    ! Wind Direction {deg}
  0,                                      ! Sky Clearness
  0,                                      ! Rain Indicator
  0,                                      ! Snow Indicator
  21,                                     ! Day of Month
  7,                                      ! Month
  SummerDesignDay,                        ! Day Type
  0,                                      ! Daylight Saving Time Indicator
  Wetbulb,                                ! Humidity Indicating Type
  ,                                       ! Humidity Indicating Day Schedule Name
  DefaultMultipliers,                     ! Dry-Bulb Temperature Range Modifier Type
  ,                                       ! Dry-Bulb Temperature Range Modifier Schedule Name
  ASHRAETau,                              ! Solar Model Indicator
  ,                                       ! Beam Solar Day Schedule Name
  ,                                       ! Diffuse Solar Day Schedule Name
  0.499,                                  ! ASHRAE Taub {dimensionless}
  1.97;                                   ! ASHRAE Taud {dimensionless}

OS:ComponentData,
  {027e1d4b-6f50-4301-a65a-b430a7a79319}, ! Handle
  Component Data 1,                       ! Name
  {d7f7a472-4eab-4654-9baf-3c2de72608c1}, ! UUID
  {d1db96f7-d2a3-4662-b16e-63b436e8a960}, ! Version UUID
  1366310743,                             ! Creation Timestamp
  1366310743,                             ! Version Timestamp
  {62f31a10-9b27-4d5b-9c62-7786d9f680b9}; ! Name of Object 1

