
OS:Version,
  {181a9a4e-1698-40f1-bc59-118a8d9de98d}, ! Handle
  0.9.3;                                  ! Version Identifier

OS:SizingPeriod:DesignDay,
  {7efc52ec-0a27-4b51-a4fb-ca3ed377457e}, ! Handle
  Bethel Airport Ann Clg .4% Condns DB=>MWB, ! Name
  22.4,                                   ! Maximum Dry-Bulb Temperature {C}
  7.7,                                    ! Daily Dry-Bulb Temperature Range {deltaC}
  14.9,                                   ! Humidity Indicating Conditions at Maximum Dry-Bulb {BasedOnField A3}
  100869,                                 ! Barometric Pressure {Pa}
  4.9,                                    ! Wind Speed {m/s}
  10,                                     ! Wind Direction {deg}
  0,                                      ! Sky Clearness
  0,                                      ! Rain Indicator
  0,                                      ! Snow Indicator
  21,                                     ! Day of Month
  7,                                      ! Month
  SummerDesignDay,                        ! Day Type
  0,                                      ! Daylight Saving Time Indicator
  Wetbulb,                                ! Humidity Indicating Type
  ,                                       ! Humidity Indicating Day Schedule Name
  DefaultMultipliers,                     ! Dry-Bulb Temperature Range Modifier Type
  ,                                       ! Dry-Bulb Temperature Range Modifier Schedule Name
  ASHRAETau,                              ! Solar Model Indicator
  ,                                       ! Beam Solar Day Schedule Name
  ,                                       ! Diffuse Solar Day Schedule Name
  0.383,                                  ! ASHRAE Taub {dimensionless}
  2.185;                                  ! ASHRAE Taud {dimensionless}

OS:ComponentData,
  {0751a0ee-fe92-4b47-ba27-d8e7ddacb178}, ! Handle
  Component Data 1,                       ! Name
  {3dfffa14-2f86-441d-b1d6-b6ea37c1793f}, ! UUID
  {1019f3b8-ddc1-4221-9c98-1de8c46e266c}, ! Version UUID
  1366304757,                             ! Creation Timestamp
  1366304757,                             ! Version Timestamp
  {7efc52ec-0a27-4b51-a4fb-ca3ed377457e}; ! Name of Object 1

