
OS:Version,
  {b60d32ff-df48-4502-867f-448e98adbc49}, ! Handle
  0.9.3;                                  ! Version Identifier

OS:SizingPeriod:DesignDay,
  {c581c29d-5142-4c46-b1f0-4d74959328fb}, ! Handle
  Dickinson Municipal Ap Ann Clg 2% Condns WB=>MDB, ! Name
  26.8,                                   ! Maximum Dry-Bulb Temperature {C}
  14.4,                                   ! Daily Dry-Bulb Temperature Range {deltaC}
  19.6,                                   ! Humidity Indicating Conditions at Maximum Dry-Bulb {BasedOnField A3}
  92210,                                  ! Barometric Pressure {Pa}
  6.3,                                    ! Wind Speed {m/s}
  150,                                    ! Wind Direction {deg}
  0,                                      ! Sky Clearness
  0,                                      ! Rain Indicator
  0,                                      ! Snow Indicator
  21,                                     ! Day of Month
  7,                                      ! Month
  SummerDesignDay,                        ! Day Type
  0,                                      ! Daylight Saving Time Indicator
  Wetbulb,                                ! Humidity Indicating Type
  ,                                       ! Humidity Indicating Day Schedule Name
  DefaultMultipliers,                     ! Dry-Bulb Temperature Range Modifier Type
  ,                                       ! Dry-Bulb Temperature Range Modifier Schedule Name
  ASHRAETau,                              ! Solar Model Indicator
  ,                                       ! Beam Solar Day Schedule Name
  ,                                       ! Diffuse Solar Day Schedule Name
  0.38,                                   ! ASHRAE Taub {dimensionless}
  2.261;                                  ! ASHRAE Taud {dimensionless}

OS:ComponentData,
  {769fb5b4-f631-4f03-82b2-d567535ee54d}, ! Handle
  Component Data 1,                       ! Name
  {d085de8e-43c4-40fe-a9ee-212bc4e47d06}, ! UUID
  {91bcdbf9-0ebe-4dae-915b-e4012c8f735f}, ! Version UUID
  1366309020,                             ! Creation Timestamp
  1366309020,                             ! Version Timestamp
  {c581c29d-5142-4c46-b1f0-4d74959328fb}; ! Name of Object 1

