
OS:Version,
  {221fe42b-8e3b-4aa1-b145-33ffd600b4bb}, ! Handle
  0.9.3;                                  ! Version Identifier

OS:SizingPeriod:DesignDay,
  {49208ea9-88c4-4944-96c2-2d97dbbe1be4}, ! Handle
  COLORADO_SPRINGS Ann Clg 2% Condns DB=>MWB, ! Name
  29.4,                                   ! Maximum Dry-Bulb Temperature {C}
  14.5,                                   ! Daily Dry-Bulb Temperature Range {deltaC}
  14.6,                                   ! Humidity Indicating Conditions at Maximum Dry-Bulb {BasedOnField A3}
  80677,                                  ! Barometric Pressure {Pa}
  5.4,                                    ! Wind Speed {m/s}
  170,                                    ! Wind Direction {deg}
  0,                                      ! Sky Clearness
  0,                                      ! Rain Indicator
  0,                                      ! Snow Indicator
  21,                                     ! Day of Month
  7,                                      ! Month
  SummerDesignDay,                        ! Day Type
  0,                                      ! Daylight Saving Time Indicator
  Wetbulb,                                ! Humidity Indicating Type
  ,                                       ! Humidity Indicating Day Schedule Name
  DefaultMultipliers,                     ! Dry-Bulb Temperature Range Modifier Type
  ,                                       ! Dry-Bulb Temperature Range Modifier Schedule Name
  ASHRAETau,                              ! Solar Model Indicator
  ,                                       ! Beam Solar Day Schedule Name
  ,                                       ! Diffuse Solar Day Schedule Name
  0.408,                                  ! ASHRAE Taub {dimensionless}
  2.047;                                  ! ASHRAE Taud {dimensionless}

OS:ComponentData,
  {0c3e7eaf-73b0-4de6-9a9e-0b400d3591c3}, ! Handle
  Component Data 1,                       ! Name
  {0cbcbb80-e6d1-4afc-a501-5f9c21be5036}, ! UUID
  {801ddb32-9f3e-4f42-b0d4-8465827b8818}, ! Version UUID
  1366306666,                             ! Creation Timestamp
  1366306666,                             ! Version Timestamp
  {49208ea9-88c4-4944-96c2-2d97dbbe1be4}; ! Name of Object 1

