
OS:Version,
  {09bfcb2d-a8e9-41a3-9b48-3e81eb280ee5}, ! Handle
  0.9.3;                                  ! Version Identifier

OS:SizingPeriod:DesignDay,
  {33981bdc-dc92-4f44-b3f1-8a1bab64fb1f}, ! Handle
  Fargo Ann Htg 99% Condns DB,            ! Name
  -26.2,                                  ! Maximum Dry-Bulb Temperature {C}
  0,                                      ! Daily Dry-Bulb Temperature Range {deltaC}
  -26.2,                                  ! Humidity Indicating Conditions at Maximum Dry-Bulb {BasedOnField A3}
  98076,                                  ! Barometric Pressure {Pa}
  3.6,                                    ! Wind Speed {m/s}
  200,                                    ! Wind Direction {deg}
  0,                                      ! Sky Clearness
  0,                                      ! Rain Indicator
  0,                                      ! Snow Indicator
  21,                                     ! Day of Month
  1,                                      ! Month
  WinterDesignDay,                        ! Day Type
  0,                                      ! Daylight Saving Time Indicator
  Wetbulb,                                ! Humidity Indicating Type
  ,                                       ! Humidity Indicating Day Schedule Name
  DefaultMultipliers,                     ! Dry-Bulb Temperature Range Modifier Type
  ,                                       ! Dry-Bulb Temperature Range Modifier Schedule Name
  ASHRAEClearSky;                         ! Solar Model Indicator

OS:ComponentData,
  {a421d3d2-bd0a-4fa6-b056-d529d62996cc}, ! Handle
  Component Data 1,                       ! Name
  {d6cf1708-3ab6-4b8b-93a8-d900d03f91eb}, ! UUID
  {e3ba17bc-22c5-4435-a753-3ce4ff89203f}, ! Version UUID
  1366309023,                             ! Creation Timestamp
  1366309023,                             ! Version Timestamp
  {33981bdc-dc92-4f44-b3f1-8a1bab64fb1f}; ! Name of Object 1

