
OS:Version,
  {92a8f0d6-31ad-4bb2-91ed-fee74f6df142}, ! Handle
  0.9.3;                                  ! Version Identifier

OS:SizingPeriod:DesignDay,
  {98099a2b-6440-4460-af3d-054d10aeaea8}, ! Handle
  Arcata/Eureka Ann Clg .4% Condns Enth=>MDB, ! Name
  19.8,                                   ! Maximum Dry-Bulb Temperature {C}
  6.5,                                    ! Daily Dry-Bulb Temperature Range {deltaC}
  47300,                                  ! Humidity Indicating Conditions at Maximum Dry-Bulb {BasedOnField A3}
  100535,                                 ! Barometric Pressure {Pa}
  4.3,                                    ! Wind Speed {m/s}
  320,                                    ! Wind Direction {deg}
  0,                                      ! Sky Clearness
  0,                                      ! Rain Indicator
  0,                                      ! Snow Indicator
  21,                                     ! Day of Month
  8,                                      ! Month
  SummerDesignDay,                        ! Day Type
  0,                                      ! Daylight Saving Time Indicator
  Enthalpy,                               ! Humidity Indicating Type
  ,                                       ! Humidity Indicating Day Schedule Name
  DefaultMultipliers,                     ! Dry-Bulb Temperature Range Modifier Type
  ,                                       ! Dry-Bulb Temperature Range Modifier Schedule Name
  ASHRAETau,                              ! Solar Model Indicator
  ,                                       ! Beam Solar Day Schedule Name
  ,                                       ! Diffuse Solar Day Schedule Name
  0.365,                                  ! ASHRAE Taub {dimensionless}
  2.513;                                  ! ASHRAE Taud {dimensionless}

OS:ComponentData,
  {667ab9cd-2695-4cdd-8602-22e085475f51}, ! Handle
  Component Data 1,                       ! Name
  {d592d6e3-7e30-4960-a552-1b7ad59d06bd}, ! UUID
  {99d498fa-a35c-4447-83d1-195a66b85114}, ! Version UUID
  1366306349,                             ! Creation Timestamp
  1366306349,                             ! Version Timestamp
  {98099a2b-6440-4460-af3d-054d10aeaea8}; ! Name of Object 1

