
OS:Version,
  {d98b2f09-bc1f-4aa0-a2ff-24053cbf59c1}, ! Handle
  0.9.3;                                  ! Version Identifier

OS:SizingPeriod:DesignDay,
  {1d69badc-95d9-472e-b5c5-5dfea375b0c7}, ! Handle
  Coeur D Alene Awos Ann Clg .4% Condns DB=>MWB, ! Name
  33,                                     ! Maximum Dry-Bulb Temperature {C}
  15.6,                                   ! Daily Dry-Bulb Temperature Range {deltaC}
  17.1,                                   ! Humidity Indicating Conditions at Maximum Dry-Bulb {BasedOnField A3}
  93115,                                  ! Barometric Pressure {Pa}
  2.8,                                    ! Wind Speed {m/s}
  250,                                    ! Wind Direction {deg}
  0,                                      ! Sky Clearness
  0,                                      ! Rain Indicator
  0,                                      ! Snow Indicator
  21,                                     ! Day of Month
  7,                                      ! Month
  SummerDesignDay,                        ! Day Type
  0,                                      ! Daylight Saving Time Indicator
  Wetbulb,                                ! Humidity Indicating Type
  ,                                       ! Humidity Indicating Day Schedule Name
  DefaultMultipliers,                     ! Dry-Bulb Temperature Range Modifier Type
  ,                                       ! Dry-Bulb Temperature Range Modifier Schedule Name
  ASHRAETau,                              ! Solar Model Indicator
  ,                                       ! Beam Solar Day Schedule Name
  ,                                       ! Diffuse Solar Day Schedule Name
  0.345,                                  ! ASHRAE Taub {dimensionless}
  2.481;                                  ! ASHRAE Taud {dimensionless}

