
OS:Version,
  {028a38d3-a6ff-4970-bd17-8fa72b30afb1}, ! Handle
  0.9.3;                                  ! Version Identifier

OS:SizingPeriod:DesignDay,
  {bd676c6c-ea97-45a2-8630-d5c7c82ac73a}, ! Handle
  Las Vegas Mccarran Intl Ap Ann Htg Wind 99% Condns WS=>MCDB, ! Name
  9.1,                                    ! Maximum Dry-Bulb Temperature {C}
  0,                                      ! Daily Dry-Bulb Temperature Range {deltaC}
  9.1,                                    ! Humidity Indicating Conditions at Maximum Dry-Bulb {BasedOnField A3}
  93779,                                  ! Barometric Pressure {Pa}
  11.7,                                   ! Wind Speed {m/s}
  240,                                    ! Wind Direction {deg}
  0,                                      ! Sky Clearness
  0,                                      ! Rain Indicator
  0,                                      ! Snow Indicator
  21,                                     ! Day of Month
  12,                                     ! Month
  WinterDesignDay,                        ! Day Type
  0,                                      ! Daylight Saving Time Indicator
  Wetbulb,                                ! Humidity Indicating Type
  ,                                       ! Humidity Indicating Day Schedule Name
  DefaultMultipliers,                     ! Dry-Bulb Temperature Range Modifier Type
  ,                                       ! Dry-Bulb Temperature Range Modifier Schedule Name
  ASHRAEClearSky;                         ! Solar Model Indicator

OS:ComponentData,
  {33134c60-91ad-4736-8620-0d8e8dfdaefd}, ! Handle
  Component Data 1,                       ! Name
  {3001dbcb-df8f-4d3d-8e48-2744b266fd6e}, ! UUID
  {4131703a-e300-473b-b73d-18f3bd0e1fa7}, ! Version UUID
  1366309500,                             ! Creation Timestamp
  1366309500,                             ! Version Timestamp
  {bd676c6c-ea97-45a2-8630-d5c7c82ac73a}; ! Name of Object 1

