
OS:Version,
  {e2faa74c-8e10-4f59-b6e2-b4b3921891c5}, ! Handle
  0.9.3;                                  ! Version Identifier

OS:SizingPeriod:DesignDay,
  {54611cf2-5608-4791-be21-46d49cc2e3bd}, ! Handle
  Fresno Ann Clg 1% Condns Enth=>MDB,     ! Name
  35.4,                                   ! Maximum Dry-Bulb Temperature {C}
  16.4,                                   ! Daily Dry-Bulb Temperature Range {deltaC}
  65600,                                  ! Humidity Indicating Conditions at Maximum Dry-Bulb {BasedOnField A3}
  100129,                                 ! Barometric Pressure {Pa}
  3.7,                                    ! Wind Speed {m/s}
  300,                                    ! Wind Direction {deg}
  0,                                      ! Sky Clearness
  0,                                      ! Rain Indicator
  0,                                      ! Snow Indicator
  21,                                     ! Day of Month
  7,                                      ! Month
  SummerDesignDay,                        ! Day Type
  0,                                      ! Daylight Saving Time Indicator
  Enthalpy,                               ! Humidity Indicating Type
  ,                                       ! Humidity Indicating Day Schedule Name
  DefaultMultipliers,                     ! Dry-Bulb Temperature Range Modifier Type
  ,                                       ! Dry-Bulb Temperature Range Modifier Schedule Name
  ASHRAETau,                              ! Solar Model Indicator
  ,                                       ! Beam Solar Day Schedule Name
  ,                                       ! Diffuse Solar Day Schedule Name
  0.428,                                  ! ASHRAE Taub {dimensionless}
  2.152;                                  ! ASHRAE Taud {dimensionless}

OS:ComponentData,
  {f7b26acd-0278-4e8d-9278-9dc514629cf7}, ! Handle
  Component Data 1,                       ! Name
  {3c5252af-d991-48df-b6bb-ce7a9a16b7d2}, ! UUID
  {1b159ac5-f070-4329-8872-189e4eb5d50d}, ! Version UUID
  1366306437,                             ! Creation Timestamp
  1366306437,                             ! Version Timestamp
  {54611cf2-5608-4791-be21-46d49cc2e3bd}; ! Name of Object 1

