
OS:Version,
  {fb3bf268-1668-4493-9af5-cf64aa1c7c45}, ! Handle
  0.9.3;                                  ! Version Identifier

OS:SizingPeriod:DesignDay,
  {c33b9493-ece4-479c-b17a-4f810665826c}, ! Handle
  FAIRBANKS Ann Clg 1% Condns Enth=>MDB,  ! Name
  23,                                     ! Maximum Dry-Bulb Temperature {C}
  10.2,                                   ! Daily Dry-Bulb Temperature Range {deltaC}
  46100,                                  ! Humidity Indicating Conditions at Maximum Dry-Bulb {BasedOnField A3}
  99678,                                  ! Barometric Pressure {Pa}
  3.1,                                    ! Wind Speed {m/s}
  180,                                    ! Wind Direction {deg}
  0,                                      ! Sky Clearness
  0,                                      ! Rain Indicator
  0,                                      ! Snow Indicator
  21,                                     ! Day of Month
  7,                                      ! Month
  SummerDesignDay,                        ! Day Type
  0,                                      ! Daylight Saving Time Indicator
  Enthalpy,                               ! Humidity Indicating Type
  ,                                       ! Humidity Indicating Day Schedule Name
  DefaultMultipliers,                     ! Dry-Bulb Temperature Range Modifier Type
  ,                                       ! Dry-Bulb Temperature Range Modifier Schedule Name
  ASHRAETau,                              ! Solar Model Indicator
  ,                                       ! Beam Solar Day Schedule Name
  ,                                       ! Diffuse Solar Day Schedule Name
  0.387,                                  ! ASHRAE Taub {dimensionless}
  2.212;                                  ! ASHRAE Taud {dimensionless}

OS:ComponentData,
  {fd1c994e-bd9b-4950-8cdc-774e239747dd}, ! Handle
  Component Data 1,                       ! Name
  {c1acbe10-d814-43c1-87c2-c5d7e3260104}, ! UUID
  {39e93048-b0bc-4b7c-9f5f-208231dac9e9}, ! Version UUID
  1366305252,                             ! Creation Timestamp
  1366305252,                             ! Version Timestamp
  {c33b9493-ece4-479c-b17a-4f810665826c}; ! Name of Object 1

