
OS:Version,
  {9b7da9e6-06ae-439c-8ec3-5fc3aa3b760d}, ! Handle
  0.9.3;                                  ! Version Identifier

OS:SizingPeriod:DesignDay,
  {699bdc7b-8586-42ec-87a3-9dc74580b01b}, ! Handle
  Hancock Houghton Co Ap Ann Clg .4% Condns WB=>MDB, ! Name
  27.9,                                   ! Maximum Dry-Bulb Temperature {C}
  10.5,                                   ! Daily Dry-Bulb Temperature Range {deltaC}
  22.7,                                   ! Humidity Indicating Conditions at Maximum Dry-Bulb {BasedOnField A3}
  97458,                                  ! Barometric Pressure {Pa}
  4.7,                                    ! Wind Speed {m/s}
  270,                                    ! Wind Direction {deg}
  0,                                      ! Sky Clearness
  0,                                      ! Rain Indicator
  0,                                      ! Snow Indicator
  21,                                     ! Day of Month
  7,                                      ! Month
  SummerDesignDay,                        ! Day Type
  0,                                      ! Daylight Saving Time Indicator
  Wetbulb,                                ! Humidity Indicating Type
  ,                                       ! Humidity Indicating Day Schedule Name
  DefaultMultipliers,                     ! Dry-Bulb Temperature Range Modifier Type
  ,                                       ! Dry-Bulb Temperature Range Modifier Schedule Name
  ASHRAETau,                              ! Solar Model Indicator
  ,                                       ! Beam Solar Day Schedule Name
  ,                                       ! Diffuse Solar Day Schedule Name
  0.413,                                  ! ASHRAE Taub {dimensionless}
  2.179;                                  ! ASHRAE Taud {dimensionless}

OS:ComponentData,
  {398f67e8-c62c-467f-a631-bf881dc2cb96}, ! Handle
  Component Data 1,                       ! Name
  {d79357e7-af28-474d-9435-52f2d490043c}, ! UUID
  {1bc4eee3-5151-4cb7-989e-a744d39c6597}, ! Version UUID
  1366308022,                             ! Creation Timestamp
  1366308022,                             ! Version Timestamp
  {699bdc7b-8586-42ec-87a3-9dc74580b01b}; ! Name of Object 1

