
OS:Version,
  {bfecabfd-7eae-4073-99f3-ef77187fc806}, ! Handle
  0.9.3;                                  ! Version Identifier

OS:SizingPeriod:DesignDay,
  {d710ab5c-8841-4955-ba91-f7a480c28401}, ! Handle
  Columbia Ann Hum_n 99% Condns DP=>MCDB, ! Name
  3.1,                                    ! Maximum Dry-Bulb Temperature {C}
  0,                                      ! Daily Dry-Bulb Temperature Range {deltaC}
  -11.9,                                  ! Humidity Indicating Conditions at Maximum Dry-Bulb {BasedOnField A3}
  100499,                                 ! Barometric Pressure {Pa}
  1.9,                                    ! Wind Speed {m/s}
  270,                                    ! Wind Direction {deg}
  0,                                      ! Sky Clearness
  0,                                      ! Rain Indicator
  0,                                      ! Snow Indicator
  21,                                     ! Day of Month
  1,                                      ! Month
  WinterDesignDay,                        ! Day Type
  0,                                      ! Daylight Saving Time Indicator
  Dewpoint,                               ! Humidity Indicating Type
  ,                                       ! Humidity Indicating Day Schedule Name
  DefaultMultipliers,                     ! Dry-Bulb Temperature Range Modifier Type
  ,                                       ! Dry-Bulb Temperature Range Modifier Schedule Name
  ASHRAEClearSky;                         ! Solar Model Indicator

OS:ComponentData,
  {f7a1cbd5-560a-4b8f-bbd3-0b4a4f2050c8}, ! Handle
  Component Data 1,                       ! Name
  {9275d400-0976-4dab-856c-8c1e0f625557}, ! UUID
  {49a9e0ec-551e-4614-a655-ce2f3808d7c0}, ! Version UUID
  1366310343,                             ! Creation Timestamp
  1366310343,                             ! Version Timestamp
  {d710ab5c-8841-4955-ba91-f7a480c28401}; ! Name of Object 1

