
OS:Version,
  {0409941f-a47a-4fe2-8238-6b35d6e8e318}, ! Handle
  0.9.3;                                  ! Version Identifier

OS:SizingPeriod:DesignDay,
  {665fa365-ab31-4549-ab69-7b620b806db1}, ! Handle
  CORPUS_CHRISTI Ann Clg .4% Condns DB=>MWB, ! Name
  35.5,                                   ! Maximum Dry-Bulb Temperature {C}
  10.1,                                   ! Daily Dry-Bulb Temperature Range {deltaC}
  25.4,                                   ! Humidity Indicating Conditions at Maximum Dry-Bulb {BasedOnField A3}
  101169,                                 ! Barometric Pressure {Pa}
  6.6,                                    ! Wind Speed {m/s}
  140,                                    ! Wind Direction {deg}
  0,                                      ! Sky Clearness
  0,                                      ! Rain Indicator
  0,                                      ! Snow Indicator
  21,                                     ! Day of Month
  8,                                      ! Month
  SummerDesignDay,                        ! Day Type
  0,                                      ! Daylight Saving Time Indicator
  Wetbulb,                                ! Humidity Indicating Type
  ,                                       ! Humidity Indicating Day Schedule Name
  DefaultMultipliers,                     ! Dry-Bulb Temperature Range Modifier Type
  ,                                       ! Dry-Bulb Temperature Range Modifier Schedule Name
  ASHRAETau,                              ! Solar Model Indicator
  ,                                       ! Beam Solar Day Schedule Name
  ,                                       ! Diffuse Solar Day Schedule Name
  0.463,                                  ! ASHRAE Taub {dimensionless}
  2.116;                                  ! ASHRAE Taud {dimensionless}

OS:ComponentData,
  {0de37ce7-a80f-42e1-a831-03debcaccbdb}, ! Handle
  Component Data 1,                       ! Name
  {72b31a64-8b8e-4f25-8c22-b80dbedb1a8a}, ! UUID
  {5fb332c6-4542-46f5-b167-5721f6bd889c}, ! Version UUID
  1366310622,                             ! Creation Timestamp
  1366310622,                             ! Version Timestamp
  {665fa365-ab31-4549-ab69-7b620b806db1}; ! Name of Object 1

