
OS:Version,
  {84b0f5a0-bd8b-45ae-99c7-f1505bce1ac7}, ! Handle
  0.9.3;                                  ! Version Identifier

OS:SizingPeriod:DesignDay,
  {04a82251-ace0-4835-8b62-175cbc63fe87}, ! Handle
  Dubois Faa Ap Ann Clg 1% Condns Enth=>MDB, ! Name
  25.8,                                   ! Maximum Dry-Bulb Temperature {C}
  10.4,                                   ! Daily Dry-Bulb Temperature Range {deltaC}
  65900,                                  ! Humidity Indicating Conditions at Maximum Dry-Bulb {BasedOnField A3}
  94856,                                  ! Barometric Pressure {Pa}
  4.4,                                    ! Wind Speed {m/s}
  250,                                    ! Wind Direction {deg}
  0,                                      ! Sky Clearness
  0,                                      ! Rain Indicator
  0,                                      ! Snow Indicator
  21,                                     ! Day of Month
  7,                                      ! Month
  SummerDesignDay,                        ! Day Type
  0,                                      ! Daylight Saving Time Indicator
  Enthalpy,                               ! Humidity Indicating Type
  ,                                       ! Humidity Indicating Day Schedule Name
  DefaultMultipliers,                     ! Dry-Bulb Temperature Range Modifier Type
  ,                                       ! Dry-Bulb Temperature Range Modifier Schedule Name
  ASHRAETau,                              ! Solar Model Indicator
  ,                                       ! Beam Solar Day Schedule Name
  ,                                       ! Diffuse Solar Day Schedule Name
  0.441,                                  ! ASHRAE Taub {dimensionless}
  2.051;                                  ! ASHRAE Taud {dimensionless}

OS:ComponentData,
  {b6b0d3ae-5fba-4e17-9660-2794660ecbf9}, ! Handle
  Component Data 1,                       ! Name
  {2b320d18-4227-4cd4-8d0c-f4185a76dca1}, ! UUID
  {ab54b1c7-3e47-443d-8656-131d613fde20}, ! Version UUID
  1366310161,                             ! Creation Timestamp
  1366310161,                             ! Version Timestamp
  {04a82251-ace0-4835-8b62-175cbc63fe87}; ! Name of Object 1

