
OS:Version,
  {807062cb-0365-4156-9804-59f6cfc4df76}, ! Handle
  0.9.3;                                  ! Version Identifier

OS:SizingPeriod:DesignDay,
  {a36d82ab-34aa-484f-ab9c-fe44995f4f0d}, ! Handle
  Lancaster Gen Wm Fox Field Ann Clg 1% Condns Enth=>MDB, ! Name
  34.1,                                   ! Maximum Dry-Bulb Temperature {C}
  16,                                     ! Daily Dry-Bulb Temperature Range {deltaC}
  60100,                                  ! Humidity Indicating Conditions at Maximum Dry-Bulb {BasedOnField A3}
  93048,                                  ! Barometric Pressure {Pa}
  6.5,                                    ! Wind Speed {m/s}
  240,                                    ! Wind Direction {deg}
  0,                                      ! Sky Clearness
  0,                                      ! Rain Indicator
  0,                                      ! Snow Indicator
  21,                                     ! Day of Month
  7,                                      ! Month
  SummerDesignDay,                        ! Day Type
  0,                                      ! Daylight Saving Time Indicator
  Enthalpy,                               ! Humidity Indicating Type
  ,                                       ! Humidity Indicating Day Schedule Name
  DefaultMultipliers,                     ! Dry-Bulb Temperature Range Modifier Type
  ,                                       ! Dry-Bulb Temperature Range Modifier Schedule Name
  ASHRAETau,                              ! Solar Model Indicator
  ,                                       ! Beam Solar Day Schedule Name
  ,                                       ! Diffuse Solar Day Schedule Name
  0.431,                                  ! ASHRAE Taub {dimensionless}
  2.057;                                  ! ASHRAE Taud {dimensionless}

OS:ComponentData,
  {a180f6eb-c232-460b-9379-d37983346aff}, ! Handle
  Component Data 1,                       ! Name
  {4b0061b9-0a60-4687-841c-7adf09eb0b8b}, ! UUID
  {ea9d110f-20aa-4d41-95e8-bcfdfde9affa}, ! Version UUID
  1366306458,                             ! Creation Timestamp
  1366306458,                             ! Version Timestamp
  {a36d82ab-34aa-484f-ab9c-fe44995f4f0d}; ! Name of Object 1

