
OS:Version,
  {b553adc1-f6d6-422e-aedd-016e8bb6998f}, ! Handle
  0.9.3;                                  ! Version Identifier

OS:SizingPeriod:DesignDay,
  {158756bc-7a05-4f5f-b097-a8e113f0120c}, ! Handle
  Blue Canyon Ap Ann Hum_n 99% Condns DP=>MCDB, ! Name
  4.5,                                    ! Maximum Dry-Bulb Temperature {C}
  0,                                      ! Daily Dry-Bulb Temperature Range {deltaC}
  -17.8,                                  ! Humidity Indicating Conditions at Maximum Dry-Bulb {BasedOnField A3}
  83431,                                  ! Barometric Pressure {Pa}
  2.1,                                    ! Wind Speed {m/s}
  60,                                     ! Wind Direction {deg}
  0,                                      ! Sky Clearness
  0,                                      ! Rain Indicator
  0,                                      ! Snow Indicator
  21,                                     ! Day of Month
  2,                                      ! Month
  WinterDesignDay,                        ! Day Type
  0,                                      ! Daylight Saving Time Indicator
  Dewpoint,                               ! Humidity Indicating Type
  ,                                       ! Humidity Indicating Day Schedule Name
  DefaultMultipliers,                     ! Dry-Bulb Temperature Range Modifier Type
  ,                                       ! Dry-Bulb Temperature Range Modifier Schedule Name
  ASHRAEClearSky;                         ! Solar Model Indicator

OS:ComponentData,
  {495f5563-72d7-42e7-a282-8bbea8a62275}, ! Handle
  Component Data 1,                       ! Name
  {2d2c8711-2151-443d-bf6f-b6af1cc9485a}, ! UUID
  {9ca36ae4-4b5b-46e8-aa0b-8ef5e4654456}, ! Version UUID
  1366306386,                             ! Creation Timestamp
  1366306386,                             ! Version Timestamp
  {158756bc-7a05-4f5f-b097-a8e113f0120c}; ! Name of Object 1

