
OS:Version,
  {89ed2a08-827b-451a-b5e8-42de54985889}, ! Handle
  0.9.3;                                  ! Version Identifier

OS:SizingPeriod:DesignDay,
  {d049c500-c14d-41dc-a699-6d01074ceb27}, ! Handle
  Binghamton Edwin A Link Field Ann Clg 2% Condns Enth=>MDB, ! Name
  24.7,                                   ! Maximum Dry-Bulb Temperature {C}
  9.7,                                    ! Daily Dry-Bulb Temperature Range {deltaC}
  62600,                                  ! Humidity Indicating Conditions at Maximum Dry-Bulb {BasedOnField A3}
  95598,                                  ! Barometric Pressure {Pa}
  4.6,                                    ! Wind Speed {m/s}
  240,                                    ! Wind Direction {deg}
  0,                                      ! Sky Clearness
  0,                                      ! Rain Indicator
  0,                                      ! Snow Indicator
  21,                                     ! Day of Month
  7,                                      ! Month
  SummerDesignDay,                        ! Day Type
  0,                                      ! Daylight Saving Time Indicator
  Enthalpy,                               ! Humidity Indicating Type
  ,                                       ! Humidity Indicating Day Schedule Name
  DefaultMultipliers,                     ! Dry-Bulb Temperature Range Modifier Type
  ,                                       ! Dry-Bulb Temperature Range Modifier Schedule Name
  ASHRAETau,                              ! Solar Model Indicator
  ,                                       ! Beam Solar Day Schedule Name
  ,                                       ! Diffuse Solar Day Schedule Name
  0.452,                                  ! ASHRAE Taub {dimensionless}
  2.004;                                  ! ASHRAE Taud {dimensionless}

OS:ComponentData,
  {64ed9d5d-fc1c-4d5d-8c21-7cc8fbd93e97}, ! Handle
  Component Data 1,                       ! Name
  {a1dedc14-ddcc-48be-b658-bdb839fa3242}, ! UUID
  {90b72fba-deda-4c69-8c2f-7eec9468676e}, ! Version UUID
  1366309595,                             ! Creation Timestamp
  1366309595,                             ! Version Timestamp
  {d049c500-c14d-41dc-a699-6d01074ceb27}; ! Name of Object 1

