
OS:Version,
  {8f65658a-d82b-4a07-896f-a8fb7a0bda4d}, ! Handle
  0.9.3;                                  ! Version Identifier

OS:SizingPeriod:DesignDay,
  {35ef05ed-e5f8-4d18-a78e-a610e1d81b92}, ! Handle
  Cedar City Municipal Ap Ann Htg Wind 99.6% Condns WS=>MCDB, ! Name
  4.7,                                    ! Maximum Dry-Bulb Temperature {C}
  0,                                      ! Daily Dry-Bulb Temperature Range {deltaC}
  4.7,                                    ! Humidity Indicating Conditions at Maximum Dry-Bulb {BasedOnField A3}
  82471,                                  ! Barometric Pressure {Pa}
  12,                                     ! Wind Speed {m/s}
  60,                                     ! Wind Direction {deg}
  0,                                      ! Sky Clearness
  0,                                      ! Rain Indicator
  0,                                      ! Snow Indicator
  21,                                     ! Day of Month
  12,                                     ! Month
  WinterDesignDay,                        ! Day Type
  0,                                      ! Daylight Saving Time Indicator
  Wetbulb,                                ! Humidity Indicating Type
  ,                                       ! Humidity Indicating Day Schedule Name
  DefaultMultipliers,                     ! Dry-Bulb Temperature Range Modifier Type
  ,                                       ! Dry-Bulb Temperature Range Modifier Schedule Name
  ASHRAEClearSky;                         ! Solar Model Indicator

OS:ComponentData,
  {f932597d-c77c-4de2-8ed4-149c6e53450d}, ! Handle
  Component Data 1,                       ! Name
  {d11cecdc-8bbb-4a35-9f99-b6e4622d086d}, ! UUID
  {1d1c26a3-595f-4158-9568-371837348e6c}, ! Version UUID
  1366310958,                             ! Creation Timestamp
  1366310958,                             ! Version Timestamp
  {35ef05ed-e5f8-4d18-a78e-a610e1d81b92}; ! Name of Object 1

