
OS:Version,
  {6b080d23-4140-4aa1-abba-e442d4bf650a}, ! Handle
  0.9.3;                                  ! Version Identifier

OS:SizingPeriod:DesignDay,
  {8a19232a-6136-486a-8915-47ee836e9a44}, ! Handle
  Austin Ann Clg .4% Condns DP=>MDB,      ! Name
  27.6,                                   ! Maximum Dry-Bulb Temperature {C}
  12.5,                                   ! Daily Dry-Bulb Temperature Range {deltaC}
  24.9,                                   ! Humidity Indicating Conditions at Maximum Dry-Bulb {BasedOnField A3}
  99075,                                  ! Barometric Pressure {Pa}
  3.7,                                    ! Wind Speed {m/s}
  190,                                    ! Wind Direction {deg}
  0,                                      ! Sky Clearness
  0,                                      ! Rain Indicator
  0,                                      ! Snow Indicator
  21,                                     ! Day of Month
  8,                                      ! Month
  SummerDesignDay,                        ! Day Type
  0,                                      ! Daylight Saving Time Indicator
  Dewpoint,                               ! Humidity Indicating Type
  ,                                       ! Humidity Indicating Day Schedule Name
  DefaultMultipliers,                     ! Dry-Bulb Temperature Range Modifier Type
  ,                                       ! Dry-Bulb Temperature Range Modifier Schedule Name
  ASHRAETau,                              ! Solar Model Indicator
  ,                                       ! Beam Solar Day Schedule Name
  ,                                       ! Diffuse Solar Day Schedule Name
  0.457,                                  ! ASHRAE Taub {dimensionless}
  2.114;                                  ! ASHRAE Taud {dimensionless}

OS:ComponentData,
  {d97a1632-d0a7-40f4-a8e3-d98c1ba30334}, ! Handle
  Component Data 1,                       ! Name
  {cb087cd3-d175-4c22-a0f6-658812ce41cb}, ! UUID
  {2736e384-ef8c-4bbc-b3b1-eb8fa1120711}, ! Version UUID
  1366310583,                             ! Creation Timestamp
  1366310583,                             ! Version Timestamp
  {8a19232a-6136-486a-8915-47ee836e9a44}; ! Name of Object 1

