
OS:Version,
  {293ff7ac-c30c-4dae-b4da-ba7bd7f79e1b}, ! Handle
  0.9.3;                                  ! Version Identifier

OS:SizingPeriod:DesignDay,
  {fc4826c8-28e4-49a2-abf4-b25a0665a1df}, ! Handle
  Lynchburg Regional Arpt Ann Htg Wind 99% Condns WS=>MCDB, ! Name
  4.5,                                    ! Maximum Dry-Bulb Temperature {C}
  0,                                      ! Daily Dry-Bulb Temperature Range {deltaC}
  4.5,                                    ! Humidity Indicating Conditions at Maximum Dry-Bulb {BasedOnField A3}
  97936,                                  ! Barometric Pressure {Pa}
  8.4,                                    ! Wind Speed {m/s}
  0,                                      ! Wind Direction {deg}
  0,                                      ! Sky Clearness
  0,                                      ! Rain Indicator
  0,                                      ! Snow Indicator
  21,                                     ! Day of Month
  1,                                      ! Month
  WinterDesignDay,                        ! Day Type
  0,                                      ! Daylight Saving Time Indicator
  Wetbulb,                                ! Humidity Indicating Type
  ,                                       ! Humidity Indicating Day Schedule Name
  DefaultMultipliers,                     ! Dry-Bulb Temperature Range Modifier Type
  ,                                       ! Dry-Bulb Temperature Range Modifier Schedule Name
  ASHRAEClearSky;                         ! Solar Model Indicator

OS:ComponentData,
  {42903fb5-e4eb-4293-bb60-b9ff41b2264a}, ! Handle
  Component Data 1,                       ! Name
  {365d44c3-ebaa-4e66-bcde-7dce5d1e03c7}, ! UUID
  {104aec43-80e1-48cb-86cc-5ed7f3c1a286}, ! Version UUID
  1366311088,                             ! Creation Timestamp
  1366311088,                             ! Version Timestamp
  {fc4826c8-28e4-49a2-abf4-b25a0665a1df}; ! Name of Object 1

