
OS:Version,
  {d70231cc-07a3-46a2-be21-160b6d32f772}, ! Handle
  0.9.3;                                  ! Version Identifier

OS:SizingPeriod:DesignDay,
  {8c212b7c-f990-43aa-817a-a3f72134c769}, ! Handle
  Binghamton Edwin A Link Field Ann Htg Wind 99% Condns WS=>MCDB, ! Name
  -5.1,                                   ! Maximum Dry-Bulb Temperature {C}
  0,                                      ! Daily Dry-Bulb Temperature Range {deltaC}
  -5.1,                                   ! Humidity Indicating Conditions at Maximum Dry-Bulb {BasedOnField A3}
  95598,                                  ! Barometric Pressure {Pa}
  10.6,                                   ! Wind Speed {m/s}
  250,                                    ! Wind Direction {deg}
  0,                                      ! Sky Clearness
  0,                                      ! Rain Indicator
  0,                                      ! Snow Indicator
  21,                                     ! Day of Month
  1,                                      ! Month
  WinterDesignDay,                        ! Day Type
  0,                                      ! Daylight Saving Time Indicator
  Wetbulb,                                ! Humidity Indicating Type
  ,                                       ! Humidity Indicating Day Schedule Name
  DefaultMultipliers,                     ! Dry-Bulb Temperature Range Modifier Type
  ,                                       ! Dry-Bulb Temperature Range Modifier Schedule Name
  ASHRAEClearSky;                         ! Solar Model Indicator

OS:ComponentData,
  {dffa42db-4ab1-4543-b625-47cb071e3ea8}, ! Handle
  Component Data 1,                       ! Name
  {fde529b9-ca27-4289-92be-768cf5ef1706}, ! UUID
  {01236ea5-3ba7-413f-82aa-4eeac51f8c31}, ! Version UUID
  1366309593,                             ! Creation Timestamp
  1366309593,                             ! Version Timestamp
  {8c212b7c-f990-43aa-817a-a3f72134c769}; ! Name of Object 1

