
OS:Version,
  {8567e112-fad2-40e0-9080-0ba5fe8eded6}, ! Handle
  0.9.3;                                  ! Version Identifier

OS:SizingPeriod:DesignDay,
  {ab8ec759-c8ca-4686-855f-79ceabc0961d}, ! Handle
  Greer/Greenville Ann Hum_n 99% Condns DP=>MCDB, ! Name
  0.3,                                    ! Maximum Dry-Bulb Temperature {C}
  0,                                      ! Daily Dry-Bulb Temperature Range {deltaC}
  -14.1,                                  ! Humidity Indicating Conditions at Maximum Dry-Bulb {BasedOnField A3}
  97819,                                  ! Barometric Pressure {Pa}
  2.6,                                    ! Wind Speed {m/s}
  20,                                     ! Wind Direction {deg}
  0,                                      ! Sky Clearness
  0,                                      ! Rain Indicator
  0,                                      ! Snow Indicator
  21,                                     ! Day of Month
  1,                                      ! Month
  WinterDesignDay,                        ! Day Type
  0,                                      ! Daylight Saving Time Indicator
  Dewpoint,                               ! Humidity Indicating Type
  ,                                       ! Humidity Indicating Day Schedule Name
  DefaultMultipliers,                     ! Dry-Bulb Temperature Range Modifier Type
  ,                                       ! Dry-Bulb Temperature Range Modifier Schedule Name
  ASHRAEClearSky;                         ! Solar Model Indicator

OS:ComponentData,
  {52c81350-d658-4da1-a834-0c52daa60b82}, ! Handle
  Component Data 1,                       ! Name
  {b7f2fc75-f0a4-4bdf-bc2a-3bcd38684f9e}, ! UUID
  {6266c059-998b-4da7-95d6-b235a13b6680}, ! Version UUID
  1366310362,                             ! Creation Timestamp
  1366310362,                             ! Version Timestamp
  {ab8ec759-c8ca-4686-855f-79ceabc0961d}; ! Name of Object 1

