
OS:Version,
  {3f7d073f-bfd6-4529-9f2c-57dec34a4ec5}, ! Handle
  0.9.3;                                  ! Version Identifier

OS:SizingPeriod:DesignDay,
  {8509c9ac-42df-4886-8f2f-f68e784eaac9}, ! Handle
  Butte Bert Mooney Arpt Ann Clg 1% Condns DB=>MWB, ! Name
  29.1,                                   ! Maximum Dry-Bulb Temperature {C}
  18.3,                                   ! Daily Dry-Bulb Temperature Range {deltaC}
  13.8,                                   ! Humidity Indicating Conditions at Maximum Dry-Bulb {BasedOnField A3}
  82613,                                  ! Barometric Pressure {Pa}
  5,                                      ! Wind Speed {m/s}
  0,                                      ! Wind Direction {deg}
  0,                                      ! Sky Clearness
  0,                                      ! Rain Indicator
  0,                                      ! Snow Indicator
  21,                                     ! Day of Month
  7,                                      ! Month
  SummerDesignDay,                        ! Day Type
  0,                                      ! Daylight Saving Time Indicator
  Wetbulb,                                ! Humidity Indicating Type
  ,                                       ! Humidity Indicating Day Schedule Name
  DefaultMultipliers,                     ! Dry-Bulb Temperature Range Modifier Type
  ,                                       ! Dry-Bulb Temperature Range Modifier Schedule Name
  ASHRAETau,                              ! Solar Model Indicator
  ,                                       ! Beam Solar Day Schedule Name
  ,                                       ! Diffuse Solar Day Schedule Name
  0.352,                                  ! ASHRAE Taub {dimensionless}
  2.312;                                  ! ASHRAE Taud {dimensionless}

OS:ComponentData,
  {32a3274a-b6ce-4b52-af59-114068c12dcd}, ! Handle
  Component Data 1,                       ! Name
  {3daac1e1-9af8-4b93-a5f2-d2bbe057bc7b}, ! UUID
  {04a6e19f-4482-4b6d-aedf-f9f9b163288b}, ! Version UUID
  1366308725,                             ! Creation Timestamp
  1366308725,                             ! Version Timestamp
  {8509c9ac-42df-4886-8f2f-f68e784eaac9}; ! Name of Object 1

