
OS:Version,
  {dbd691bc-c73f-4959-a7ec-d0312ab3dad3}, ! Handle
  0.9.3;                                  ! Version Identifier

OS:SizingPeriod:DesignDay,
  {03d42645-14c7-4b2e-b265-ef86ccc45009}, ! Handle
  Huntsville Intl Jones Field Ann Clg 2% Condns Enth=>MDB, ! Name
  30,                                     ! Maximum Dry-Bulb Temperature {C}
  10.4,                                   ! Daily Dry-Bulb Temperature Range {deltaC}
  75600,                                  ! Humidity Indicating Conditions at Maximum Dry-Bulb {BasedOnField A3}
  99063,                                  ! Barometric Pressure {Pa}
  3.6,                                    ! Wind Speed {m/s}
  270,                                    ! Wind Direction {deg}
  0,                                      ! Sky Clearness
  0,                                      ! Rain Indicator
  0,                                      ! Snow Indicator
  21,                                     ! Day of Month
  7,                                      ! Month
  SummerDesignDay,                        ! Day Type
  0,                                      ! Daylight Saving Time Indicator
  Enthalpy,                               ! Humidity Indicating Type
  ,                                       ! Humidity Indicating Day Schedule Name
  DefaultMultipliers,                     ! Dry-Bulb Temperature Range Modifier Type
  ,                                       ! Dry-Bulb Temperature Range Modifier Schedule Name
  ASHRAETau,                              ! Solar Model Indicator
  ,                                       ! Beam Solar Day Schedule Name
  ,                                       ! Diffuse Solar Day Schedule Name
  0.552,                                  ! ASHRAE Taub {dimensionless}
  1.785;                                  ! ASHRAE Taud {dimensionless}

OS:ComponentData,
  {a3c391af-77b8-4bbe-90f1-a15229ba6391}, ! Handle
  Component Data 1,                       ! Name
  {d8d66544-c424-4bd5-9ca1-36703444a821}, ! UUID
  {1b01bb5c-654b-4840-b6a2-ff64eb7fd848}, ! Version UUID
  1366305671,                             ! Creation Timestamp
  1366305671,                             ! Version Timestamp
  {03d42645-14c7-4b2e-b265-ef86ccc45009}; ! Name of Object 1

