
OS:Version,
  {21c5c8fd-8809-4075-ade9-ed49597a6f47}, ! Handle
  0.9.3;                                  ! Version Identifier

OS:SizingPeriod:DesignDay,
  {38b10140-0837-433f-a0aa-ae6f26df6cf7}, ! Handle
  Detroit Willow Run Ap Ann Clg 2% Condns DP=>MDB, ! Name
  25.8,                                   ! Maximum Dry-Bulb Temperature {C}
  11.2,                                   ! Daily Dry-Bulb Temperature Range {deltaC}
  21.6,                                   ! Humidity Indicating Conditions at Maximum Dry-Bulb {BasedOnField A3}
  98733,                                  ! Barometric Pressure {Pa}
  5.3,                                    ! Wind Speed {m/s}
  230,                                    ! Wind Direction {deg}
  0,                                      ! Sky Clearness
  0,                                      ! Rain Indicator
  0,                                      ! Snow Indicator
  21,                                     ! Day of Month
  7,                                      ! Month
  SummerDesignDay,                        ! Day Type
  0,                                      ! Daylight Saving Time Indicator
  Dewpoint,                               ! Humidity Indicating Type
  ,                                       ! Humidity Indicating Day Schedule Name
  DefaultMultipliers,                     ! Dry-Bulb Temperature Range Modifier Type
  ,                                       ! Dry-Bulb Temperature Range Modifier Schedule Name
  ASHRAETau,                              ! Solar Model Indicator
  ,                                       ! Beam Solar Day Schedule Name
  ,                                       ! Diffuse Solar Day Schedule Name
  0.465,                                  ! ASHRAE Taub {dimensionless}
  1.99;                                   ! ASHRAE Taud {dimensionless}

OS:ComponentData,
  {be639a36-d0c0-401f-8c0b-99ee28508412}, ! Handle
  Component Data 1,                       ! Name
  {4bb99308-986f-4245-81bb-33492ccafdf6}, ! UUID
  {27ad8717-f66f-4f21-bffb-9311a05248f6}, ! Version UUID
  1366307985,                             ! Creation Timestamp
  1366307985,                             ! Version Timestamp
  {38b10140-0837-433f-a0aa-ae6f26df6cf7}; ! Name of Object 1

