
OS:Version,
  {bf75c7ca-67b0-4bf9-b2b2-32a80e566ef6}, ! Handle
  0.9.3;                                  ! Version Identifier

OS:SizingPeriod:DesignDay,
  {18c54711-a382-4578-bfe2-f6652d872024}, ! Handle
  EL_PASO Ann Clg 2% Condns DB=>MWB,      ! Name
  35.5,                                   ! Maximum Dry-Bulb Temperature {C}
  13,                                     ! Daily Dry-Bulb Temperature Range {deltaC}
  17.9,                                   ! Humidity Indicating Conditions at Maximum Dry-Bulb {BasedOnField A3}
  87780,                                  ! Barometric Pressure {Pa}
  3.9,                                    ! Wind Speed {m/s}
  280,                                    ! Wind Direction {deg}
  0,                                      ! Sky Clearness
  0,                                      ! Rain Indicator
  0,                                      ! Snow Indicator
  21,                                     ! Day of Month
  7,                                      ! Month
  SummerDesignDay,                        ! Day Type
  0,                                      ! Daylight Saving Time Indicator
  Wetbulb,                                ! Humidity Indicating Type
  ,                                       ! Humidity Indicating Day Schedule Name
  DefaultMultipliers,                     ! Dry-Bulb Temperature Range Modifier Type
  ,                                       ! Dry-Bulb Temperature Range Modifier Schedule Name
  ASHRAETau,                              ! Solar Model Indicator
  ,                                       ! Beam Solar Day Schedule Name
  ,                                       ! Diffuse Solar Day Schedule Name
  0.605,                                  ! ASHRAE Taub {dimensionless}
  1.547;                                  ! ASHRAE Taud {dimensionless}

OS:ComponentData,
  {32545f5e-1a14-4f4f-aa23-7bcf4a100e37}, ! Handle
  Component Data 1,                       ! Name
  {2c13b9f6-c5a7-4285-aba2-ff726cb2f181}, ! UUID
  {56da2df9-c355-49e4-af45-729552df6cad}, ! Version UUID
  1366310684,                             ! Creation Timestamp
  1366310684,                             ! Version Timestamp
  {18c54711-a382-4578-bfe2-f6652d872024}; ! Name of Object 1

