
OS:Version,
  {615bcaea-47d1-4391-9d92-bce0476bacb6}, ! Handle
  0.9.3;                                  ! Version Identifier

OS:SizingPeriod:DesignDay,
  {cda2c3ff-f621-4593-bcf9-6d43a43afe19}, ! Handle
  KAHULUI Ann Htg 99% Condns DB,          ! Name
  15.9,                                   ! Maximum Dry-Bulb Temperature {C}
  0,                                      ! Daily Dry-Bulb Temperature Range {deltaC}
  15.9,                                   ! Humidity Indicating Conditions at Maximum Dry-Bulb {BasedOnField A3}
  101145,                                 ! Barometric Pressure {Pa}
  2.1,                                    ! Wind Speed {m/s}
  150,                                    ! Wind Direction {deg}
  0,                                      ! Sky Clearness
  0,                                      ! Rain Indicator
  0,                                      ! Snow Indicator
  21,                                     ! Day of Month
  2,                                      ! Month
  WinterDesignDay,                        ! Day Type
  0,                                      ! Daylight Saving Time Indicator
  Wetbulb,                                ! Humidity Indicating Type
  ,                                       ! Humidity Indicating Day Schedule Name
  DefaultMultipliers,                     ! Dry-Bulb Temperature Range Modifier Type
  ,                                       ! Dry-Bulb Temperature Range Modifier Schedule Name
  ASHRAEClearSky;                         ! Solar Model Indicator

OS:ComponentData,
  {e80f1a4e-db96-4f84-9049-7d55d77b9aaf}, ! Handle
  Component Data 1,                       ! Name
  {b80c17e6-81d0-457a-a859-5a6cfed0379c}, ! UUID
  {b26e2272-c1b7-4269-b53a-8260655dc202}, ! Version UUID
  1366307096,                             ! Creation Timestamp
  1366307096,                             ! Version Timestamp
  {cda2c3ff-f621-4593-bcf9-6d43a43afe19}; ! Name of Object 1

