
OS:Version,
  {c4e51cf9-ce06-4158-8689-fb0f75262b61}, ! Handle
  0.9.3;                                  ! Version Identifier

OS:SizingPeriod:DesignDay,
  {8ed691bf-a20c-415d-be05-985c9dd626fe}, ! Handle
  La Junta Municipal Ap Ann Htg Wind 99% Condns WS=>MCDB, ! Name
  4.7,                                    ! Maximum Dry-Bulb Temperature {C}
  0,                                      ! Daily Dry-Bulb Temperature Range {deltaC}
  4.7,                                    ! Humidity Indicating Conditions at Maximum Dry-Bulb {BasedOnField A3}
  86853,                                  ! Barometric Pressure {Pa}
  12,                                     ! Wind Speed {m/s}
  270,                                    ! Wind Direction {deg}
  0,                                      ! Sky Clearness
  0,                                      ! Rain Indicator
  0,                                      ! Snow Indicator
  21,                                     ! Day of Month
  12,                                     ! Month
  WinterDesignDay,                        ! Day Type
  0,                                      ! Daylight Saving Time Indicator
  Wetbulb,                                ! Humidity Indicating Type
  ,                                       ! Humidity Indicating Day Schedule Name
  DefaultMultipliers,                     ! Dry-Bulb Temperature Range Modifier Type
  ,                                       ! Dry-Bulb Temperature Range Modifier Schedule Name
  ASHRAEClearSky;                         ! Solar Model Indicator

OS:ComponentData,
  {fa07ba63-34c6-4e63-a29f-9c1cd9c9dae5}, ! Handle
  Component Data 1,                       ! Name
  {c9ce4356-c716-49d6-ae83-28365434035e}, ! UUID
  {33aba94c-f6e2-43e9-b63e-665bb16103ae}, ! Version UUID
  1366306714,                             ! Creation Timestamp
  1366306714,                             ! Version Timestamp
  {8ed691bf-a20c-415d-be05-985c9dd626fe}; ! Name of Object 1

