
OS:Version,
  {447005ca-658a-4009-8068-1ce124be0dbb}, ! Handle
  0.9.3;                                  ! Version Identifier

OS:SizingPeriod:DesignDay,
  {fe852253-153c-4297-a8c9-15b7d77fdc21}, ! Handle
  Elmira Corning Regional Ap Ann Clg 1% Condns DB=>MWB, ! Name
  30.3,                                   ! Maximum Dry-Bulb Temperature {C}
  13,                                     ! Daily Dry-Bulb Temperature Range {deltaC}
  21.3,                                   ! Humidity Indicating Conditions at Maximum Dry-Bulb {BasedOnField A3}
  97878,                                  ! Barometric Pressure {Pa}
  4.8,                                    ! Wind Speed {m/s}
  240,                                    ! Wind Direction {deg}
  0,                                      ! Sky Clearness
  0,                                      ! Rain Indicator
  0,                                      ! Snow Indicator
  21,                                     ! Day of Month
  7,                                      ! Month
  SummerDesignDay,                        ! Day Type
  0,                                      ! Daylight Saving Time Indicator
  Wetbulb,                                ! Humidity Indicating Type
  ,                                       ! Humidity Indicating Day Schedule Name
  DefaultMultipliers,                     ! Dry-Bulb Temperature Range Modifier Type
  ,                                       ! Dry-Bulb Temperature Range Modifier Schedule Name
  ASHRAETau,                              ! Solar Model Indicator
  ,                                       ! Beam Solar Day Schedule Name
  ,                                       ! Diffuse Solar Day Schedule Name
  0.471,                                  ! ASHRAE Taub {dimensionless}
  1.96;                                   ! ASHRAE Taud {dimensionless}

OS:ComponentData,
  {4fe612ef-6d08-4e69-a13c-7ccdb5cb23ea}, ! Handle
  Component Data 1,                       ! Name
  {2af84832-ef69-4967-91bd-4d5bc49e3267}, ! UUID
  {c9e5e67e-3c90-45af-b565-c70b8af2d230}, ! Version UUID
  1366309617,                             ! Creation Timestamp
  1366309617,                             ! Version Timestamp
  {fe852253-153c-4297-a8c9-15b7d77fdc21}; ! Name of Object 1

