
OS:Version,
  {5a3ac90f-21d9-4c17-bcd8-8ea5251c60e8}, ! Handle
  0.9.3;                                  ! Version Identifier

OS:SizingPeriod:DesignDay,
  {0b0d1349-09a8-473f-91f5-f7d3b8e75d37}, ! Handle
  Abilene Regional Ap  Ut Ann Clg .4% Condns Enth=>MDB, ! Name
  31.7,                                   ! Maximum Dry-Bulb Temperature {C}
  11.6,                                   ! Daily Dry-Bulb Temperature Range {deltaC}
  75500,                                  ! Humidity Indicating Conditions at Maximum Dry-Bulb {BasedOnField A3}
  95118,                                  ! Barometric Pressure {Pa}
  5.3,                                    ! Wind Speed {m/s}
  160,                                    ! Wind Direction {deg}
  0,                                      ! Sky Clearness
  0,                                      ! Rain Indicator
  0,                                      ! Snow Indicator
  21,                                     ! Day of Month
  7,                                      ! Month
  SummerDesignDay,                        ! Day Type
  0,                                      ! Daylight Saving Time Indicator
  Enthalpy,                               ! Humidity Indicating Type
  ,                                       ! Humidity Indicating Day Schedule Name
  DefaultMultipliers,                     ! Dry-Bulb Temperature Range Modifier Type
  ,                                       ! Dry-Bulb Temperature Range Modifier Schedule Name
  ASHRAETau,                              ! Solar Model Indicator
  ,                                       ! Beam Solar Day Schedule Name
  ,                                       ! Diffuse Solar Day Schedule Name
  0.426,                                  ! ASHRAE Taub {dimensionless}
  2.172;                                  ! ASHRAE Taud {dimensionless}

OS:ComponentData,
  {35a070de-0bea-44b9-a7d0-c6de66541c45}, ! Handle
  Component Data 1,                       ! Name
  {8000d353-56aa-42d2-a05e-93b63df7ec5b}, ! UUID
  {5b1b881e-d12f-47fb-946b-2a1a3a763dd3}, ! Version UUID
  1366310559,                             ! Creation Timestamp
  1366310559,                             ! Version Timestamp
  {0b0d1349-09a8-473f-91f5-f7d3b8e75d37}; ! Name of Object 1

