
OS:Version,
  {d4dbf49e-692c-4a5f-be8a-abb6a6313667}, ! Handle
  0.9.3;                                  ! Version Identifier

OS:SizingPeriod:DesignDay,
  {4b6fa846-e296-4b37-8c08-87b2be6c5994}, ! Handle
  DODGE_CITY Ann Hum_n 99.6% Condns DP=>MCDB, ! Name
  -14.9,                                  ! Maximum Dry-Bulb Temperature {C}
  0,                                      ! Daily Dry-Bulb Temperature Range {deltaC}
  -21.4,                                  ! Humidity Indicating Conditions at Maximum Dry-Bulb {BasedOnField A3}
  92221,                                  ! Barometric Pressure {Pa}
  5.6,                                    ! Wind Speed {m/s}
  0,                                      ! Wind Direction {deg}
  0,                                      ! Sky Clearness
  0,                                      ! Rain Indicator
  0,                                      ! Snow Indicator
  21,                                     ! Day of Month
  1,                                      ! Month
  WinterDesignDay,                        ! Day Type
  0,                                      ! Daylight Saving Time Indicator
  Dewpoint,                               ! Humidity Indicating Type
  ,                                       ! Humidity Indicating Day Schedule Name
  DefaultMultipliers,                     ! Dry-Bulb Temperature Range Modifier Type
  ,                                       ! Dry-Bulb Temperature Range Modifier Schedule Name
  ASHRAEClearSky;                         ! Solar Model Indicator

OS:ComponentData,
  {2d938a36-b297-47f8-b32c-1058afa2eaa6}, ! Handle
  Component Data 1,                       ! Name
  {e4cdec26-0ccb-4f8c-824d-21d77605d6c3}, ! UUID
  {1c1b62ef-f79a-46ca-ae12-77921764aec6}, ! Version UUID
  1366307504,                             ! Creation Timestamp
  1366307504,                             ! Version Timestamp
  {4b6fa846-e296-4b37-8c08-87b2be6c5994}; ! Name of Object 1

