
OS:Version,
  {871a498b-134e-4ea7-89e8-b4b70d712046}, ! Handle
  0.9.3;                                  ! Version Identifier

OS:SizingPeriod:DesignDay,
  {3bd20322-6ad5-4134-8355-fb8719c3547e}, ! Handle
  COLUMBUS Ann Clg 2% Condns Enth=>MDB,   ! Name
  30.6,                                   ! Maximum Dry-Bulb Temperature {C}
  10.1,                                   ! Daily Dry-Bulb Temperature Range {deltaC}
  75700,                                  ! Humidity Indicating Conditions at Maximum Dry-Bulb {BasedOnField A3}
  99702,                                  ! Barometric Pressure {Pa}
  3.7,                                    ! Wind Speed {m/s}
  270,                                    ! Wind Direction {deg}
  0,                                      ! Sky Clearness
  0,                                      ! Rain Indicator
  0,                                      ! Snow Indicator
  21,                                     ! Day of Month
  7,                                      ! Month
  SummerDesignDay,                        ! Day Type
  0,                                      ! Daylight Saving Time Indicator
  Enthalpy,                               ! Humidity Indicating Type
  ,                                       ! Humidity Indicating Day Schedule Name
  DefaultMultipliers,                     ! Dry-Bulb Temperature Range Modifier Type
  ,                                       ! Dry-Bulb Temperature Range Modifier Schedule Name
  ASHRAETau,                              ! Solar Model Indicator
  ,                                       ! Beam Solar Day Schedule Name
  ,                                       ! Diffuse Solar Day Schedule Name
  0.564,                                  ! ASHRAE Taub {dimensionless}
  1.778;                                  ! ASHRAE Taud {dimensionless}

OS:ComponentData,
  {05680f37-15ff-4251-b6e3-e305c847ace9}, ! Handle
  Component Data 1,                       ! Name
  {3705c753-56f2-45a2-a5e8-5f033e7c090e}, ! UUID
  {c3fdf894-517e-43de-a549-1f718ae8c231}, ! Version UUID
  1366307002,                             ! Creation Timestamp
  1366307002,                             ! Version Timestamp
  {3bd20322-6ad5-4134-8355-fb8719c3547e}; ! Name of Object 1

