
OS:Version,
  {086b9b93-d5e9-4ae0-8a0c-dffa576ab5f6}, ! Handle
  0.9.3;                                  ! Version Identifier

OS:SizingPeriod:DesignDay,
  {cec6fe46-55cd-4ca6-a472-8a258ba9022e}, ! Handle
  Burley Municipal Arpt Ann Htg 99.6% Condns DB, ! Name
  -17.9,                                  ! Maximum Dry-Bulb Temperature {C}
  0,                                      ! Daily Dry-Bulb Temperature Range {deltaC}
  -17.9,                                  ! Humidity Indicating Conditions at Maximum Dry-Bulb {BasedOnField A3}
  87002,                                  ! Barometric Pressure {Pa}
  2.6,                                    ! Wind Speed {m/s}
  60,                                     ! Wind Direction {deg}
  0,                                      ! Sky Clearness
  0,                                      ! Rain Indicator
  0,                                      ! Snow Indicator
  21,                                     ! Day of Month
  12,                                     ! Month
  WinterDesignDay,                        ! Day Type
  0,                                      ! Daylight Saving Time Indicator
  Wetbulb,                                ! Humidity Indicating Type
  ,                                       ! Humidity Indicating Day Schedule Name
  DefaultMultipliers,                     ! Dry-Bulb Temperature Range Modifier Type
  ,                                       ! Dry-Bulb Temperature Range Modifier Schedule Name
  ASHRAEClearSky;                         ! Solar Model Indicator

OS:ComponentData,
  {3069b1e5-11a0-4145-aaf1-242a0159dfd1}, ! Handle
  Component Data 1,                       ! Name
  {886802ac-8713-45ec-9cce-c8d75dfed33c}, ! UUID
  {0249b853-57f0-4430-9cfa-90e96acffb85}, ! Version UUID
  1366307272,                             ! Creation Timestamp
  1366307272,                             ! Version Timestamp
  {cec6fe46-55cd-4ca6-a472-8a258ba9022e}; ! Name of Object 1

