
OS:Version,
  {57d19e87-1fa1-41c9-aaed-5233a0c7c858}, ! Handle
  0.9.3;                                  ! Version Identifier

OS:SizingPeriod:DesignDay,
  {00e8637e-c78a-42a1-8d1f-452257d93b34}, ! Handle
  Lovelock Ann Clg 2% Condns DB=>MWB,     ! Name
  34.4,                                   ! Maximum Dry-Bulb Temperature {C}
  20.2,                                   ! Daily Dry-Bulb Temperature Range {deltaC}
  15.9,                                   ! Humidity Indicating Conditions at Maximum Dry-Bulb {BasedOnField A3}
  87844,                                  ! Barometric Pressure {Pa}
  4.1,                                    ! Wind Speed {m/s}
  180,                                    ! Wind Direction {deg}
  0,                                      ! Sky Clearness
  0,                                      ! Rain Indicator
  0,                                      ! Snow Indicator
  21,                                     ! Day of Month
  7,                                      ! Month
  SummerDesignDay,                        ! Day Type
  0,                                      ! Daylight Saving Time Indicator
  Wetbulb,                                ! Humidity Indicating Type
  ,                                       ! Humidity Indicating Day Schedule Name
  DefaultMultipliers,                     ! Dry-Bulb Temperature Range Modifier Type
  ,                                       ! Dry-Bulb Temperature Range Modifier Schedule Name
  ASHRAETau,                              ! Solar Model Indicator
  ,                                       ! Beam Solar Day Schedule Name
  ,                                       ! Diffuse Solar Day Schedule Name
  0.427,                                  ! ASHRAE Taub {dimensionless}
  1.948;                                  ! ASHRAE Taud {dimensionless}

OS:ComponentData,
  {368f6aaf-7326-4703-870c-d5f5d1bef250}, ! Handle
  Component Data 1,                       ! Name
  {d97511c4-61fe-4b45-8f72-352f2eec42bf}, ! UUID
  {418ef366-6a08-484a-8fdb-988df2f89507}, ! Version UUID
  1366309511,                             ! Creation Timestamp
  1366309511,                             ! Version Timestamp
  {00e8637e-c78a-42a1-8d1f-452257d93b34}; ! Name of Object 1

