
OS:Version,
  {54e78cbc-bb1d-4e65-8754-83dc224e8be6}, ! Handle
  0.9.3;                                  ! Version Identifier

OS:SizingPeriod:DesignDay,
  {2304e31b-3c50-4ec8-bf0d-2bdf27c0dbe6}, ! Handle
  GREENSBORO Ann Clg 1% Condns Enth=>MDB, ! Name
  30,                                     ! Maximum Dry-Bulb Temperature {C}
  9.9,                                    ! Daily Dry-Bulb Temperature Range {deltaC}
  74500,                                  ! Humidity Indicating Conditions at Maximum Dry-Bulb {BasedOnField A3}
  98123,                                  ! Barometric Pressure {Pa}
  3.4,                                    ! Wind Speed {m/s}
  230,                                    ! Wind Direction {deg}
  0,                                      ! Sky Clearness
  0,                                      ! Rain Indicator
  0,                                      ! Snow Indicator
  21,                                     ! Day of Month
  7,                                      ! Month
  SummerDesignDay,                        ! Day Type
  0,                                      ! Daylight Saving Time Indicator
  Enthalpy,                               ! Humidity Indicating Type
  ,                                       ! Humidity Indicating Day Schedule Name
  DefaultMultipliers,                     ! Dry-Bulb Temperature Range Modifier Type
  ,                                       ! Dry-Bulb Temperature Range Modifier Schedule Name
  ASHRAETau,                              ! Solar Model Indicator
  ,                                       ! Beam Solar Day Schedule Name
  ,                                       ! Diffuse Solar Day Schedule Name
  0.557,                                  ! ASHRAE Taub {dimensionless}
  1.757;                                  ! ASHRAE Taud {dimensionless}

OS:ComponentData,
  {5731d40b-7ee0-4ad5-99a8-52eef9fbe309}, ! Handle
  Component Data 1,                       ! Name
  {3cc9246c-fa0e-4343-973b-2a5226cdb3fb}, ! UUID
  {b76a2d6b-4ee0-4c1c-97f9-9625159c5fab}, ! Version UUID
  1366308937,                             ! Creation Timestamp
  1366308937,                             ! Version Timestamp
  {2304e31b-3c50-4ec8-bf0d-2bdf27c0dbe6}; ! Name of Object 1

