
OS:Version,
  {ac7ebd1c-5591-4c89-85ce-01bbe5484524}, ! Handle
  0.9.3;                                  ! Version Identifier

OS:SizingPeriod:DesignDay,
  {3ca7a965-d5f3-4a8f-8bcb-5d5f3dc13ef5}, ! Handle
  Corvallis Muni Ann Htg Wind 99.6% Condns WS=>MCDB, ! Name
  9.1,                                    ! Maximum Dry-Bulb Temperature {C}
  0,                                      ! Daily Dry-Bulb Temperature Range {deltaC}
  9.1,                                    ! Humidity Indicating Conditions at Maximum Dry-Bulb {BasedOnField A3}
  100403,                                 ! Barometric Pressure {Pa}
  11.1,                                   ! Wind Speed {m/s}
  300,                                    ! Wind Direction {deg}
  0,                                      ! Sky Clearness
  0,                                      ! Rain Indicator
  0,                                      ! Snow Indicator
  21,                                     ! Day of Month
  12,                                     ! Month
  WinterDesignDay,                        ! Day Type
  0,                                      ! Daylight Saving Time Indicator
  Wetbulb,                                ! Humidity Indicating Type
  ,                                       ! Humidity Indicating Day Schedule Name
  DefaultMultipliers,                     ! Dry-Bulb Temperature Range Modifier Type
  ,                                       ! Dry-Bulb Temperature Range Modifier Schedule Name
  ASHRAEClearSky;                         ! Solar Model Indicator

OS:ComponentData,
  {10213c67-0506-4153-a5e9-4e4543f7af63}, ! Handle
  Component Data 1,                       ! Name
  {9254fa5c-953d-4804-af2f-57e8b3f8c711}, ! UUID
  {f4d1b625-7d7e-4ea9-93e0-778afd3c4146}, ! Version UUID
  1366310000,                             ! Creation Timestamp
  1366310000,                             ! Version Timestamp
  {3ca7a965-d5f3-4a8f-8bcb-5d5f3dc13ef5}; ! Name of Object 1

