
OS:Version,
  {7d84efc7-a5a1-4ab3-b5ac-30af6662a1a3}, ! Handle
  0.9.3;                                  ! Version Identifier

OS:SizingPeriod:DesignDay,
  {5dae9776-efbe-48df-947a-7d328bc43952}, ! Handle
  EUGENE Ann Clg 1% Condns DB=>MWB,       ! Name
  30.9,                                   ! Maximum Dry-Bulb Temperature {C}
  15.8,                                   ! Daily Dry-Bulb Temperature Range {deltaC}
  18.6,                                   ! Humidity Indicating Conditions at Maximum Dry-Bulb {BasedOnField A3}
  100022,                                 ! Barometric Pressure {Pa}
  5.1,                                    ! Wind Speed {m/s}
  0,                                      ! Wind Direction {deg}
  0,                                      ! Sky Clearness
  0,                                      ! Rain Indicator
  0,                                      ! Snow Indicator
  21,                                     ! Day of Month
  7,                                      ! Month
  SummerDesignDay,                        ! Day Type
  0,                                      ! Daylight Saving Time Indicator
  Wetbulb,                                ! Humidity Indicating Type
  ,                                       ! Humidity Indicating Day Schedule Name
  DefaultMultipliers,                     ! Dry-Bulb Temperature Range Modifier Type
  ,                                       ! Dry-Bulb Temperature Range Modifier Schedule Name
  ASHRAETau,                              ! Solar Model Indicator
  ,                                       ! Beam Solar Day Schedule Name
  ,                                       ! Diffuse Solar Day Schedule Name
  0.357,                                  ! ASHRAE Taub {dimensionless}
  2.559;                                  ! ASHRAE Taud {dimensionless}

OS:ComponentData,
  {3d4764b2-ad00-4606-a8c2-492d8296b547}, ! Handle
  Component Data 1,                       ! Name
  {818d4cdd-7498-4338-94da-a66a7d3ee5b6}, ! UUID
  {e23823f5-a581-4ba7-a20a-7d168ced4ea0}, ! Version UUID
  1366310012,                             ! Creation Timestamp
  1366310012,                             ! Version Timestamp
  {5dae9776-efbe-48df-947a-7d328bc43952}; ! Name of Object 1

