
OS:Version,
  {94f12527-13eb-4914-a4c8-bb6002c55468}, ! Handle
  0.9.3;                                  ! Version Identifier

OS:SizingPeriod:DesignDay,
  {feb8b808-18a6-4b79-a8b2-571d5ce7f5ef}, ! Handle
  Grand Forks Af Ann Clg 1% Condns DP=>MDB, ! Name
  26,                                     ! Maximum Dry-Bulb Temperature {C}
  12.4,                                   ! Daily Dry-Bulb Temperature Range {deltaC}
  21.9,                                   ! Humidity Indicating Conditions at Maximum Dry-Bulb {BasedOnField A3}
  98053,                                  ! Barometric Pressure {Pa}
  5.8,                                    ! Wind Speed {m/s}
  180,                                    ! Wind Direction {deg}
  0,                                      ! Sky Clearness
  0,                                      ! Rain Indicator
  0,                                      ! Snow Indicator
  21,                                     ! Day of Month
  7,                                      ! Month
  SummerDesignDay,                        ! Day Type
  0,                                      ! Daylight Saving Time Indicator
  Dewpoint,                               ! Humidity Indicating Type
  ,                                       ! Humidity Indicating Day Schedule Name
  DefaultMultipliers,                     ! Dry-Bulb Temperature Range Modifier Type
  ,                                       ! Dry-Bulb Temperature Range Modifier Schedule Name
  ASHRAETau,                              ! Solar Model Indicator
  ,                                       ! Beam Solar Day Schedule Name
  ,                                       ! Diffuse Solar Day Schedule Name
  0.393,                                  ! ASHRAE Taub {dimensionless}
  2.263;                                  ! ASHRAE Taud {dimensionless}

OS:ComponentData,
  {a569d321-81a3-4768-b19e-e6d6fa27a5c3}, ! Handle
  Component Data 1,                       ! Name
  {9616ddd5-7e57-4e74-a2df-aee18480eaf3}, ! UUID
  {67cea2da-6ac9-427c-aea7-66cbc7879514}, ! Version UUID
  1366309042,                             ! Creation Timestamp
  1366309042,                             ! Version Timestamp
  {feb8b808-18a6-4b79-a8b2-571d5ce7f5ef}; ! Name of Object 1

