
OS:Version,
  {e4fba1e8-7c29-4834-9605-5814c591e691}, ! Handle
  0.9.3;                                  ! Version Identifier

OS:SizingPeriod:DesignDay,
  {4ba0ce1f-8423-444c-91a8-d77c8831c2e2}, ! Handle
  Fort Campbell Aaf Ann Clg .4% Condns WB=>MDB, ! Name
  31.9,                                   ! Maximum Dry-Bulb Temperature {C}
  10.5,                                   ! Daily Dry-Bulb Temperature Range {deltaC}
  26.6,                                   ! Humidity Indicating Conditions at Maximum Dry-Bulb {BasedOnField A3}
  99264,                                  ! Barometric Pressure {Pa}
  3,                                      ! Wind Speed {m/s}
  210,                                    ! Wind Direction {deg}
  0,                                      ! Sky Clearness
  0,                                      ! Rain Indicator
  0,                                      ! Snow Indicator
  21,                                     ! Day of Month
  7,                                      ! Month
  SummerDesignDay,                        ! Day Type
  0,                                      ! Daylight Saving Time Indicator
  Wetbulb,                                ! Humidity Indicating Type
  ,                                       ! Humidity Indicating Day Schedule Name
  DefaultMultipliers,                     ! Dry-Bulb Temperature Range Modifier Type
  ,                                       ! Dry-Bulb Temperature Range Modifier Schedule Name
  ASHRAETau,                              ! Solar Model Indicator
  ,                                       ! Beam Solar Day Schedule Name
  ,                                       ! Diffuse Solar Day Schedule Name
  0.511,                                  ! ASHRAE Taub {dimensionless}
  1.883;                                  ! ASHRAE Taud {dimensionless}

OS:ComponentData,
  {5e2212dc-5505-47ca-b09e-bb6898b2d72e}, ! Handle
  Component Data 1,                       ! Name
  {95cd8e95-28d7-4194-b16b-886eea35f208}, ! UUID
  {6a5ae9d0-19a6-40e9-b054-4ecc28b3f2cd}, ! Version UUID
  1366307629,                             ! Creation Timestamp
  1366307629,                             ! Version Timestamp
  {4ba0ce1f-8423-444c-91a8-d77c8831c2e2}; ! Name of Object 1

