
OS:Version,
  {f0643e0e-7057-4bef-bd7f-f3bb8cc36644}, ! Handle
  0.9.3;                                  ! Version Identifier

OS:SizingPeriod:DesignDay,
  {047bff70-f4a1-4a28-8adf-db6621b4d6d2}, ! Handle
  Georgetown  Awos Ann Clg 2% Condns DB=>MWB, ! Name
  34.8,                                   ! Maximum Dry-Bulb Temperature {C}
  12.2,                                   ! Daily Dry-Bulb Temperature Range {deltaC}
  22.7,                                   ! Humidity Indicating Conditions at Maximum Dry-Bulb {BasedOnField A3}
  98475,                                  ! Barometric Pressure {Pa}
  3.9,                                    ! Wind Speed {m/s}
  170,                                    ! Wind Direction {deg}
  0,                                      ! Sky Clearness
  0,                                      ! Rain Indicator
  0,                                      ! Snow Indicator
  21,                                     ! Day of Month
  8,                                      ! Month
  SummerDesignDay,                        ! Day Type
  0,                                      ! Daylight Saving Time Indicator
  Wetbulb,                                ! Humidity Indicating Type
  ,                                       ! Humidity Indicating Day Schedule Name
  DefaultMultipliers,                     ! Dry-Bulb Temperature Range Modifier Type
  ,                                       ! Dry-Bulb Temperature Range Modifier Schedule Name
  ASHRAETau,                              ! Solar Model Indicator
  ,                                       ! Beam Solar Day Schedule Name
  ,                                       ! Diffuse Solar Day Schedule Name
  0.451,                                  ! ASHRAE Taub {dimensionless}
  2.127;                                  ! ASHRAE Taud {dimensionless}

OS:ComponentData,
  {00df29b6-b3e1-4be0-a7b7-f86ebb4acb6c}, ! Handle
  Component Data 1,                       ! Name
  {06f0018e-0e19-4196-a50c-2debe0e891d9}, ! UUID
  {cba199c4-4442-47fc-aead-9940a942e310}, ! Version UUID
  1366310722,                             ! Creation Timestamp
  1366310722,                             ! Version Timestamp
  {047bff70-f4a1-4a28-8adf-db6621b4d6d2}; ! Name of Object 1

