
OS:Version,
  {ef487352-e864-4e24-8949-da6b1647f9b6}, ! Handle
  0.9.3;                                  ! Version Identifier

OS:SizingPeriod:DesignDay,
  {c166f563-0087-407c-a619-c8236cf0fd4b}, ! Handle
  Hancock Houghton Co Ap Ann Htg 99% Condns DB, ! Name
  -18.2,                                  ! Maximum Dry-Bulb Temperature {C}
  0,                                      ! Daily Dry-Bulb Temperature Range {deltaC}
  -18.2,                                  ! Humidity Indicating Conditions at Maximum Dry-Bulb {BasedOnField A3}
  97458,                                  ! Barometric Pressure {Pa}
  4.3,                                    ! Wind Speed {m/s}
  310,                                    ! Wind Direction {deg}
  0,                                      ! Sky Clearness
  0,                                      ! Rain Indicator
  0,                                      ! Snow Indicator
  21,                                     ! Day of Month
  1,                                      ! Month
  WinterDesignDay,                        ! Day Type
  0,                                      ! Daylight Saving Time Indicator
  Wetbulb,                                ! Humidity Indicating Type
  ,                                       ! Humidity Indicating Day Schedule Name
  DefaultMultipliers,                     ! Dry-Bulb Temperature Range Modifier Type
  ,                                       ! Dry-Bulb Temperature Range Modifier Schedule Name
  ASHRAEClearSky;                         ! Solar Model Indicator

OS:ComponentData,
  {70220dcb-5986-46ff-8240-8b9cb52c4322}, ! Handle
  Component Data 1,                       ! Name
  {4813d27e-c1db-458d-b50a-e844f8f62172}, ! UUID
  {d550d234-373d-4c67-a240-633e7d81fb8d}, ! Version UUID
  1366308021,                             ! Creation Timestamp
  1366308021,                             ! Version Timestamp
  {c166f563-0087-407c-a619-c8236cf0fd4b}; ! Name of Object 1

