
OS:Version,
  {66da8f5d-23b7-4b50-8ad3-ad4becc0f109}, ! Handle
  0.9.3;                                  ! Version Identifier

OS:SizingPeriod:DesignDay,
  {b3a37e93-a59d-42b3-b9c6-ad73f301ffbf}, ! Handle
  Augusta Bush Field Ann Htg Wind 99% Condns WS=>MCDB, ! Name
  9.3,                                    ! Maximum Dry-Bulb Temperature {C}
  0,                                      ! Daily Dry-Bulb Temperature Range {deltaC}
  9.3,                                    ! Humidity Indicating Conditions at Maximum Dry-Bulb {BasedOnField A3}
  100845,                                 ! Barometric Pressure {Pa}
  9.1,                                    ! Wind Speed {m/s}
  300,                                    ! Wind Direction {deg}
  0,                                      ! Sky Clearness
  0,                                      ! Rain Indicator
  0,                                      ! Snow Indicator
  21,                                     ! Day of Month
  1,                                      ! Month
  WinterDesignDay,                        ! Day Type
  0,                                      ! Daylight Saving Time Indicator
  Wetbulb,                                ! Humidity Indicating Type
  ,                                       ! Humidity Indicating Day Schedule Name
  DefaultMultipliers,                     ! Dry-Bulb Temperature Range Modifier Type
  ,                                       ! Dry-Bulb Temperature Range Modifier Schedule Name
  ASHRAEClearSky;                         ! Solar Model Indicator

OS:ComponentData,
  {1ae8f325-76e0-4532-a762-ce8a104eea57}, ! Handle
  Component Data 1,                       ! Name
  {691b7b4f-9031-46fe-89e3-3396bdc4e038}, ! UUID
  {c2368bb2-c133-414b-a748-d92f47cecd56}, ! Version UUID
  1366306988,                             ! Creation Timestamp
  1366306988,                             ! Version Timestamp
  {b3a37e93-a59d-42b3-b9c6-ad73f301ffbf}; ! Name of Object 1

