
OS:Version,
  {61ba46dc-7695-4a13-9ade-4ffc1cf67540}, ! Handle
  0.9.3;                                  ! Version Identifier

OS:SizingPeriod:DesignDay,
  {7b7eb995-e8fe-41d8-ae39-45004721d536}, ! Handle
  Ketchikan Intl Ap Ann Clg 2% Condns DP=>MDB, ! Name
  15.9,                                   ! Maximum Dry-Bulb Temperature {C}
  5.8,                                    ! Daily Dry-Bulb Temperature Range {deltaC}
  13.6,                                   ! Humidity Indicating Conditions at Maximum Dry-Bulb {BasedOnField A3}
  101049,                                 ! Barometric Pressure {Pa}
  4.6,                                    ! Wind Speed {m/s}
  320,                                    ! Wind Direction {deg}
  0,                                      ! Sky Clearness
  0,                                      ! Rain Indicator
  0,                                      ! Snow Indicator
  21,                                     ! Day of Month
  8,                                      ! Month
  SummerDesignDay,                        ! Day Type
  0,                                      ! Daylight Saving Time Indicator
  Dewpoint,                               ! Humidity Indicating Type
  ,                                       ! Humidity Indicating Day Schedule Name
  DefaultMultipliers,                     ! Dry-Bulb Temperature Range Modifier Type
  ,                                       ! Dry-Bulb Temperature Range Modifier Schedule Name
  ASHRAETau,                              ! Solar Model Indicator
  ,                                       ! Beam Solar Day Schedule Name
  ,                                       ! Diffuse Solar Day Schedule Name
  0.369,                                  ! ASHRAE Taub {dimensionless}
  2.37;                                   ! ASHRAE Taud {dimensionless}

