
OS:Version,
  {00267776-566b-46bc-963d-5ed1c785ca1b}, ! Handle
  0.9.3;                                  ! Version Identifier

OS:SizingPeriod:DesignDay,
  {736c3805-5ca5-443b-a3bb-08c5baa0e960}, ! Handle
  Cody Muni  Awos Ann Hum_n 99% Condns DP=>MCDB, ! Name
  -18.3,                                  ! Maximum Dry-Bulb Temperature {C}
  0,                                      ! Daily Dry-Bulb Temperature Range {deltaC}
  -26.3,                                  ! Humidity Indicating Conditions at Maximum Dry-Bulb {BasedOnField A3}
  84007,                                  ! Barometric Pressure {Pa}
  2,                                      ! Wind Speed {m/s}
  30,                                     ! Wind Direction {deg}
  0,                                      ! Sky Clearness
  0,                                      ! Rain Indicator
  0,                                      ! Snow Indicator
  21,                                     ! Day of Month
  12,                                     ! Month
  WinterDesignDay,                        ! Day Type
  0,                                      ! Daylight Saving Time Indicator
  Dewpoint,                               ! Humidity Indicating Type
  ,                                       ! Humidity Indicating Day Schedule Name
  DefaultMultipliers,                     ! Dry-Bulb Temperature Range Modifier Type
  ,                                       ! Dry-Bulb Temperature Range Modifier Schedule Name
  ASHRAEClearSky;                         ! Solar Model Indicator

OS:ComponentData,
  {c2c09c25-a8a5-47fb-a572-d3e6499a4b39}, ! Handle
  Component Data 1,                       ! Name
  {83b1c005-fde0-4877-8e9b-2543d571b2d4}, ! UUID
  {0c242c6a-27fa-462d-a344-ebbdfa9c06cf}, ! Version UUID
  1366311716,                             ! Creation Timestamp
  1366311716,                             ! Version Timestamp
  {736c3805-5ca5-443b-a3bb-08c5baa0e960}; ! Name of Object 1

