
OS:Version,
  {4890d09c-5338-444d-a960-affa530b4616}, ! Handle
  0.9.3;                                  ! Version Identifier

OS:SizingPeriod:DesignDay,
  {f6a1132b-b4ee-499d-8bec-b143bab5ced5}, ! Handle
  Belmar Asc Ann Clg 2% Condns WB=>MDB,   ! Name
  27.4,                                   ! Maximum Dry-Bulb Temperature {C}
  8.9,                                    ! Daily Dry-Bulb Temperature Range {deltaC}
  23,                                     ! Humidity Indicating Conditions at Maximum Dry-Bulb {BasedOnField A3}
  101013,                                 ! Barometric Pressure {Pa}
  4.6,                                    ! Wind Speed {m/s}
  280,                                    ! Wind Direction {deg}
  0,                                      ! Sky Clearness
  0,                                      ! Rain Indicator
  0,                                      ! Snow Indicator
  21,                                     ! Day of Month
  7,                                      ! Month
  SummerDesignDay,                        ! Day Type
  0,                                      ! Daylight Saving Time Indicator
  Wetbulb,                                ! Humidity Indicating Type
  ,                                       ! Humidity Indicating Day Schedule Name
  DefaultMultipliers,                     ! Dry-Bulb Temperature Range Modifier Type
  ,                                       ! Dry-Bulb Temperature Range Modifier Schedule Name
  ASHRAETau,                              ! Solar Model Indicator
  ,                                       ! Beam Solar Day Schedule Name
  ,                                       ! Diffuse Solar Day Schedule Name
  0.543,                                  ! ASHRAE Taub {dimensionless}
  1.8;                                    ! ASHRAE Taud {dimensionless}

