
OS:Version,
  {a177d0e4-804c-487b-924b-11a0835504c9}, ! Handle
  0.9.3;                                  ! Version Identifier

OS:SizingPeriod:DesignDay,
  {27e00164-b31d-45ed-841d-289b639fda14}, ! Handle
  Belmar Asc Ann Clg 1% Condns Enth=>MDB, ! Name
  29,                                     ! Maximum Dry-Bulb Temperature {C}
  8.9,                                    ! Daily Dry-Bulb Temperature Range {deltaC}
  71100,                                  ! Humidity Indicating Conditions at Maximum Dry-Bulb {BasedOnField A3}
  101013,                                 ! Barometric Pressure {Pa}
  4.6,                                    ! Wind Speed {m/s}
  280,                                    ! Wind Direction {deg}
  0,                                      ! Sky Clearness
  0,                                      ! Rain Indicator
  0,                                      ! Snow Indicator
  21,                                     ! Day of Month
  7,                                      ! Month
  SummerDesignDay,                        ! Day Type
  0,                                      ! Daylight Saving Time Indicator
  Enthalpy,                               ! Humidity Indicating Type
  ,                                       ! Humidity Indicating Day Schedule Name
  DefaultMultipliers,                     ! Dry-Bulb Temperature Range Modifier Type
  ,                                       ! Dry-Bulb Temperature Range Modifier Schedule Name
  ASHRAETau,                              ! Solar Model Indicator
  ,                                       ! Beam Solar Day Schedule Name
  ,                                       ! Diffuse Solar Day Schedule Name
  0.543,                                  ! ASHRAE Taub {dimensionless}
  1.8;                                    ! ASHRAE Taud {dimensionless}

OS:ComponentData,
  {a25b2547-560f-40b5-b5f0-d9e92b1f74fc}, ! Handle
  Component Data 1,                       ! Name
  {3b3caaa7-3c22-4b5b-93cf-563356efcd9f}, ! UUID
  {7b83dbb8-2d70-4b3b-8b0b-d2298f143d27}, ! Version UUID
  1366309297,                             ! Creation Timestamp
  1366309297,                             ! Version Timestamp
  {27e00164-b31d-45ed-841d-289b639fda14}; ! Name of Object 1

