
OS:Version,
  {72d4f06d-3ce9-46ef-858d-5949e3f5f603}, ! Handle
  0.9.3;                                  ! Version Identifier

OS:SizingPeriod:DesignDay,
  {89984471-c43b-49cc-be28-3e85e36d7728}, ! Handle
  Eagle County Ap Ann Hum_n 99.6% Condns DP=>MCDB, ! Name
  -21.9,                                  ! Maximum Dry-Bulb Temperature {C}
  0,                                      ! Daily Dry-Bulb Temperature Range {deltaC}
  -25.9,                                  ! Humidity Indicating Conditions at Maximum Dry-Bulb {BasedOnField A3}
  79693,                                  ! Barometric Pressure {Pa}
  0.7,                                    ! Wind Speed {m/s}
  120,                                    ! Wind Direction {deg}
  0,                                      ! Sky Clearness
  0,                                      ! Rain Indicator
  0,                                      ! Snow Indicator
  21,                                     ! Day of Month
  1,                                      ! Month
  WinterDesignDay,                        ! Day Type
  0,                                      ! Daylight Saving Time Indicator
  Dewpoint,                               ! Humidity Indicating Type
  ,                                       ! Humidity Indicating Day Schedule Name
  DefaultMultipliers,                     ! Dry-Bulb Temperature Range Modifier Type
  ,                                       ! Dry-Bulb Temperature Range Modifier Schedule Name
  ASHRAEClearSky;                         ! Solar Model Indicator

OS:ComponentData,
  {24a71e74-b8d9-4423-95cf-4d2f451c5ede}, ! Handle
  Component Data 1,                       ! Name
  {5eef9127-2d53-487f-8e02-059c0e1c1bce}, ! UUID
  {39c82f88-3396-4891-8c02-8ba967e25244}, ! Version UUID
  1366306688,                             ! Creation Timestamp
  1366306688,                             ! Version Timestamp
  {89984471-c43b-49cc-be28-3e85e36d7728}; ! Name of Object 1

