
OS:Version,
  {c604a203-b360-46d3-8c8d-768079d1be5a}, ! Handle
  0.9.3;                                  ! Version Identifier

OS:SizingPeriod:DesignDay,
  {e0e7435b-300d-4cea-9e68-823670a1fdbb}, ! Handle
  Fort Worth/Meacham Fie Ann Hum_n 99% Condns DP=>MCDB, ! Name
  0.7,                                    ! Maximum Dry-Bulb Temperature {C}
  0,                                      ! Daily Dry-Bulb Temperature Range {deltaC}
  -10.9,                                  ! Humidity Indicating Conditions at Maximum Dry-Bulb {BasedOnField A3}
  98757,                                  ! Barometric Pressure {Pa}
  4.4,                                    ! Wind Speed {m/s}
  0,                                      ! Wind Direction {deg}
  0,                                      ! Sky Clearness
  0,                                      ! Rain Indicator
  0,                                      ! Snow Indicator
  21,                                     ! Day of Month
  1,                                      ! Month
  WinterDesignDay,                        ! Day Type
  0,                                      ! Daylight Saving Time Indicator
  Dewpoint,                               ! Humidity Indicating Type
  ,                                       ! Humidity Indicating Day Schedule Name
  DefaultMultipliers,                     ! Dry-Bulb Temperature Range Modifier Type
  ,                                       ! Dry-Bulb Temperature Range Modifier Schedule Name
  ASHRAEClearSky;                         ! Solar Model Indicator

OS:ComponentData,
  {18947b8b-1a74-4a89-8a21-762d2925e6e9}, ! Handle
  Component Data 1,                       ! Name
  {39d4b6e1-e0d3-4398-9274-2a491bab1bdf}, ! UUID
  {d4db185c-ae5d-42bc-8983-e72af4975c1e}, ! Version UUID
  1366310705,                             ! Creation Timestamp
  1366310705,                             ! Version Timestamp
  {e0e7435b-300d-4cea-9e68-823670a1fdbb}; ! Name of Object 1

