
OS:Version,
  {c5298f15-b1b8-4160-98fa-52a2af94e6af}, ! Handle
  0.9.3;                                  ! Version Identifier

OS:SizingPeriod:DesignDay,
  {f7afff9c-e6fd-464c-a1a6-6a3095b0824b}, ! Handle
  Las Vegas/Int'l Airpor Ann Hum_n 99.6% Condns DP=>MCDB, ! Name
  6.8,                                    ! Maximum Dry-Bulb Temperature {C}
  0,                                      ! Daily Dry-Bulb Temperature Range {deltaC}
  -17.5,                                  ! Humidity Indicating Conditions at Maximum Dry-Bulb {BasedOnField A3}
  93598,                                  ! Barometric Pressure {Pa}
  3,                                      ! Wind Speed {m/s}
  240,                                    ! Wind Direction {deg}
  0,                                      ! Sky Clearness
  0,                                      ! Rain Indicator
  0,                                      ! Snow Indicator
  21,                                     ! Day of Month
  12,                                     ! Month
  WinterDesignDay,                        ! Day Type
  0,                                      ! Daylight Saving Time Indicator
  Dewpoint,                               ! Humidity Indicating Type
  ,                                       ! Humidity Indicating Day Schedule Name
  DefaultMultipliers,                     ! Dry-Bulb Temperature Range Modifier Type
  ,                                       ! Dry-Bulb Temperature Range Modifier Schedule Name
  ASHRAEClearSky;                         ! Solar Model Indicator

OS:ComponentData,
  {1df9f6c8-4c96-4a65-81a7-5e7b0074fdf8}, ! Handle
  Component Data 1,                       ! Name
  {07d80ceb-9a91-45f9-be9c-2270f170e104}, ! UUID
  {77d47284-d987-4b84-abad-b54841210e2a}, ! Version UUID
  1366309496,                             ! Creation Timestamp
  1366309496,                             ! Version Timestamp
  {f7afff9c-e6fd-464c-a1a6-6a3095b0824b}; ! Name of Object 1

