
OS:Version,
  {5bcb6806-774a-4f3f-af67-67731cbb6191}, ! Handle
  0.9.3;                                  ! Version Identifier

OS:SizingPeriod:DesignDay,
  {b70010ff-7086-43c5-8e88-404100dceb67}, ! Handle
  Colorado Springs Muni Ap Ann Hum_n 99% Condns DP=>MCDB, ! Name
  -6.8,                                   ! Maximum Dry-Bulb Temperature {C}
  0,                                      ! Daily Dry-Bulb Temperature Range {deltaC}
  -21,                                    ! Humidity Indicating Conditions at Maximum Dry-Bulb {BasedOnField A3}
  80767,                                  ! Barometric Pressure {Pa}
  2.8,                                    ! Wind Speed {m/s}
  20,                                     ! Wind Direction {deg}
  0,                                      ! Sky Clearness
  0,                                      ! Rain Indicator
  0,                                      ! Snow Indicator
  21,                                     ! Day of Month
  12,                                     ! Month
  WinterDesignDay,                        ! Day Type
  0,                                      ! Daylight Saving Time Indicator
  Dewpoint,                               ! Humidity Indicating Type
  ,                                       ! Humidity Indicating Day Schedule Name
  DefaultMultipliers,                     ! Dry-Bulb Temperature Range Modifier Type
  ,                                       ! Dry-Bulb Temperature Range Modifier Schedule Name
  ASHRAEClearSky;                         ! Solar Model Indicator

OS:ComponentData,
  {13f06362-d9bb-4c08-9713-a2617be7cc9a}, ! Handle
  Component Data 1,                       ! Name
  {448e4764-812f-468d-b817-9483ac1d4c7a}, ! UUID
  {4118b047-9333-408b-b2fe-244390b11af8}, ! Version UUID
  1366306663,                             ! Creation Timestamp
  1366306663,                             ! Version Timestamp
  {b70010ff-7086-43c5-8e88-404100dceb67}; ! Name of Object 1

