
OS:Version,
  {70c069fe-e2c7-43b3-a68b-92a857086116}, ! Handle
  0.9.3;                                  ! Version Identifier

OS:SizingPeriod:DesignDay,
  {386ee015-ff40-42fd-8b98-073c61de2303}, ! Handle
  Aurora Buckley Field Angb Ann Clg 1% Condns DP=>MDB, ! Name
  19.1,                                   ! Maximum Dry-Bulb Temperature {C}
  14.8,                                   ! Daily Dry-Bulb Temperature Range {deltaC}
  14.7,                                   ! Humidity Indicating Conditions at Maximum Dry-Bulb {BasedOnField A3}
  82237,                                  ! Barometric Pressure {Pa}
  3.6,                                    ! Wind Speed {m/s}
  30,                                     ! Wind Direction {deg}
  0,                                      ! Sky Clearness
  0,                                      ! Rain Indicator
  0,                                      ! Snow Indicator
  21,                                     ! Day of Month
  7,                                      ! Month
  SummerDesignDay,                        ! Day Type
  0,                                      ! Daylight Saving Time Indicator
  Dewpoint,                               ! Humidity Indicating Type
  ,                                       ! Humidity Indicating Day Schedule Name
  DefaultMultipliers,                     ! Dry-Bulb Temperature Range Modifier Type
  ,                                       ! Dry-Bulb Temperature Range Modifier Schedule Name
  ASHRAETau,                              ! Solar Model Indicator
  ,                                       ! Beam Solar Day Schedule Name
  ,                                       ! Diffuse Solar Day Schedule Name
  0.423,                                  ! ASHRAE Taub {dimensionless}
  2.02;                                   ! ASHRAE Taud {dimensionless}

OS:ComponentData,
  {d04c8b93-06c2-4ec0-8a27-82d30dde6247}, ! Handle
  Component Data 1,                       ! Name
  {3fc887d5-530b-48c5-b3a0-060627cfa699}, ! UUID
  {a100c561-5e3b-41f6-9357-a17eb88f9e4d}, ! Version UUID
  1366306654,                             ! Creation Timestamp
  1366306654,                             ! Version Timestamp
  {386ee015-ff40-42fd-8b98-073c61de2303}; ! Name of Object 1

