
OS:Version,
  {9bfe242f-15d6-48a2-9617-c76d9e41d607}, ! Handle
  0.9.3;                                  ! Version Identifier

OS:SizingPeriod:DesignDay,
  {6afde167-821a-4d76-9c75-81f16d4425e4}, ! Handle
  Atlanta Hartsfield Intl Ap Ann Clg 1% Condns DB=>MWB, ! Name
  33,                                     ! Maximum Dry-Bulb Temperature {C}
  9.5,                                    ! Daily Dry-Bulb Temperature Range {deltaC}
  23.3,                                   ! Humidity Indicating Conditions at Maximum Dry-Bulb {BasedOnField A3}
  97679,                                  ! Barometric Pressure {Pa}
  4,                                      ! Wind Speed {m/s}
  300,                                    ! Wind Direction {deg}
  0,                                      ! Sky Clearness
  0,                                      ! Rain Indicator
  0,                                      ! Snow Indicator
  21,                                     ! Day of Month
  7,                                      ! Month
  SummerDesignDay,                        ! Day Type
  0,                                      ! Daylight Saving Time Indicator
  Wetbulb,                                ! Humidity Indicating Type
  ,                                       ! Humidity Indicating Day Schedule Name
  DefaultMultipliers,                     ! Dry-Bulb Temperature Range Modifier Type
  ,                                       ! Dry-Bulb Temperature Range Modifier Schedule Name
  ASHRAETau,                              ! Solar Model Indicator
  ,                                       ! Beam Solar Day Schedule Name
  ,                                       ! Diffuse Solar Day Schedule Name
  0.556,                                  ! ASHRAE Taub {dimensionless}
  1.779;                                  ! ASHRAE Taud {dimensionless}

OS:ComponentData,
  {bae5e10a-25c0-4284-b5aa-e45e35856012}, ! Handle
  Component Data 1,                       ! Name
  {0b507839-8a63-4bb6-8793-61ef6a3ebc7e}, ! UUID
  {af4bba8a-c6eb-4673-8f86-295f36c24c8f}, ! Version UUID
  1366306978,                             ! Creation Timestamp
  1366306978,                             ! Version Timestamp
  {6afde167-821a-4d76-9c75-81f16d4425e4}; ! Name of Object 1

