
OS:Version,
  {eb935614-3737-459a-a0eb-caf66f2eb938}, ! Handle
  0.9.3;                                  ! Version Identifier

OS:SizingPeriod:DesignDay,
  {7420728c-9852-4d97-85da-3ade4a5ad1fa}, ! Handle
  Carlsbad Cavern City Air Term Ann Clg 2% Condns WB=>MDB, ! Name
  29.8,                                   ! Maximum Dry-Bulb Temperature {C}
  14.5,                                   ! Daily Dry-Bulb Temperature Range {deltaC}
  21,                                     ! Humidity Indicating Conditions at Maximum Dry-Bulb {BasedOnField A3}
  90038,                                  ! Barometric Pressure {Pa}
  4.9,                                    ! Wind Speed {m/s}
  140,                                    ! Wind Direction {deg}
  0,                                      ! Sky Clearness
  0,                                      ! Rain Indicator
  0,                                      ! Snow Indicator
  21,                                     ! Day of Month
  7,                                      ! Month
  SummerDesignDay,                        ! Day Type
  0,                                      ! Daylight Saving Time Indicator
  Wetbulb,                                ! Humidity Indicating Type
  ,                                       ! Humidity Indicating Day Schedule Name
  DefaultMultipliers,                     ! Dry-Bulb Temperature Range Modifier Type
  ,                                       ! Dry-Bulb Temperature Range Modifier Schedule Name
  ASHRAETau,                              ! Solar Model Indicator
  ,                                       ! Beam Solar Day Schedule Name
  ,                                       ! Diffuse Solar Day Schedule Name
  0.494,                                  ! ASHRAE Taub {dimensionless}
  1.831;                                  ! ASHRAE Taud {dimensionless}

OS:ComponentData,
  {c686aabb-05c6-49b2-90e4-2e9fa0952c92}, ! Handle
  Component Data 1,                       ! Name
  {dbeee308-ad2a-4aad-b877-4079888b9c35}, ! UUID
  {136f8e02-4170-4b17-b12c-c04a0b3877c5}, ! Version UUID
  1366309375,                             ! Creation Timestamp
  1366309375,                             ! Version Timestamp
  {7420728c-9852-4d97-85da-3ade4a5ad1fa}; ! Name of Object 1

