
OS:Version,
  {b8fb8c0a-fea9-4240-a204-49cd20ec62dc}, ! Handle
  0.9.3;                                  ! Version Identifier

OS:SizingPeriod:DesignDay,
  {5d92325e-85f9-4936-b2e6-6d29ca8b3316}, ! Handle
  Fallon Naas Ann Clg 1% Condns Enth=>MDB, ! Name
  33,                                     ! Maximum Dry-Bulb Temperature {C}
  19.4,                                   ! Daily Dry-Bulb Temperature Range {deltaC}
  53000,                                  ! Humidity Indicating Conditions at Maximum Dry-Bulb {BasedOnField A3}
  87726,                                  ! Barometric Pressure {Pa}
  2.7,                                    ! Wind Speed {m/s}
  340,                                    ! Wind Direction {deg}
  0,                                      ! Sky Clearness
  0,                                      ! Rain Indicator
  0,                                      ! Snow Indicator
  21,                                     ! Day of Month
  7,                                      ! Month
  SummerDesignDay,                        ! Day Type
  0,                                      ! Daylight Saving Time Indicator
  Enthalpy,                               ! Humidity Indicating Type
  ,                                       ! Humidity Indicating Day Schedule Name
  DefaultMultipliers,                     ! Dry-Bulb Temperature Range Modifier Type
  ,                                       ! Dry-Bulb Temperature Range Modifier Schedule Name
  ASHRAETau,                              ! Solar Model Indicator
  ,                                       ! Beam Solar Day Schedule Name
  ,                                       ! Diffuse Solar Day Schedule Name
  0.428,                                  ! ASHRAE Taub {dimensionless}
  1.955;                                  ! ASHRAE Taud {dimensionless}

OS:ComponentData,
  {2a60d7ec-984e-482d-bce6-b657767d3b68}, ! Handle
  Component Data 1,                       ! Name
  {3fccec64-8912-4444-8304-fcda7402271c}, ! UUID
  {01193c85-c049-4d99-8fda-a770a2ea607e}, ! Version UUID
  1366309493,                             ! Creation Timestamp
  1366309493,                             ! Version Timestamp
  {5d92325e-85f9-4936-b2e6-6d29ca8b3316}; ! Name of Object 1

