
OS:Version,
  {acaab2a8-adaf-48c9-b666-b7e555d9a90f}, ! Handle
  0.9.3;                                  ! Version Identifier

OS:SizingPeriod:DesignDay,
  {39322e98-2c5b-4789-84a8-7c81ad63fb5c}, ! Handle
  Fallon Naas Ann Clg 1% Condns Enth=>MDB, ! Name
  33,                                     ! Maximum Dry-Bulb Temperature {C}
  19.4,                                   ! Daily Dry-Bulb Temperature Range {deltaC}
  53000,                                  ! Humidity Indicating Conditions at Maximum Dry-Bulb {BasedOnField A3}
  87726,                                  ! Barometric Pressure {Pa}
  2.7,                                    ! Wind Speed {m/s}
  340,                                    ! Wind Direction {deg}
  0,                                      ! Sky Clearness
  0,                                      ! Rain Indicator
  0,                                      ! Snow Indicator
  21,                                     ! Day of Month
  7,                                      ! Month
  SummerDesignDay,                        ! Day Type
  0,                                      ! Daylight Saving Time Indicator
  Enthalpy,                               ! Humidity Indicating Type
  ,                                       ! Humidity Indicating Day Schedule Name
  DefaultMultipliers,                     ! Dry-Bulb Temperature Range Modifier Type
  ,                                       ! Dry-Bulb Temperature Range Modifier Schedule Name
  ASHRAETau,                              ! Solar Model Indicator
  ,                                       ! Beam Solar Day Schedule Name
  ,                                       ! Diffuse Solar Day Schedule Name
  0.428,                                  ! ASHRAE Taub {dimensionless}
  1.955;                                  ! ASHRAE Taud {dimensionless}

