
OS:Version,
  {7c67bceb-5ed6-492f-824c-acb8ed217e72}, ! Handle
  0.9.3;                                  ! Version Identifier

OS:SizingPeriod:DesignDay,
  {6eeae944-3b42-4d85-accd-c3d4d6ced3f4}, ! Handle
  Elko Ann Clg 2% Condns DP=>MDB,         ! Name
  19.6,                                   ! Maximum Dry-Bulb Temperature {C}
  21.8,                                   ! Daily Dry-Bulb Temperature Range {deltaC}
  10.1,                                   ! Humidity Indicating Conditions at Maximum Dry-Bulb {BasedOnField A3}
  83884,                                  ! Barometric Pressure {Pa}
  4.1,                                    ! Wind Speed {m/s}
  240,                                    ! Wind Direction {deg}
  0,                                      ! Sky Clearness
  0,                                      ! Rain Indicator
  0,                                      ! Snow Indicator
  21,                                     ! Day of Month
  7,                                      ! Month
  SummerDesignDay,                        ! Day Type
  0,                                      ! Daylight Saving Time Indicator
  Dewpoint,                               ! Humidity Indicating Type
  ,                                       ! Humidity Indicating Day Schedule Name
  DefaultMultipliers,                     ! Dry-Bulb Temperature Range Modifier Type
  ,                                       ! Dry-Bulb Temperature Range Modifier Schedule Name
  ASHRAETau,                              ! Solar Model Indicator
  ,                                       ! Beam Solar Day Schedule Name
  ,                                       ! Diffuse Solar Day Schedule Name
  0.446,                                  ! ASHRAE Taub {dimensionless}
  1.888;                                  ! ASHRAE Taud {dimensionless}

OS:ComponentData,
  {5e134e6b-49a2-4412-b545-f8e68963f0c0}, ! Handle
  Component Data 1,                       ! Name
  {26d4eb26-2e57-451f-a12e-dad4515623dc}, ! UUID
  {47fb0b6d-7cb1-4035-9156-19dfca3a1211}, ! Version UUID
  1366309463,                             ! Creation Timestamp
  1366309463,                             ! Version Timestamp
  {6eeae944-3b42-4d85-accd-c3d4d6ced3f4}; ! Name of Object 1

