
OS:Version,
  {86135b49-572c-406c-9053-dc6d6e7c4829}, ! Handle
  0.9.3;                                  ! Version Identifier

OS:SizingPeriod:DesignDay,
  {ac062e68-a133-4f63-af60-8f68577fd6c5}, ! Handle
  Columbia Regional Airport Ann Hum_n 99.6% Condns DP=>MCDB, ! Name
  -15.9,                                  ! Maximum Dry-Bulb Temperature {C}
  0,                                      ! Daily Dry-Bulb Temperature Range {deltaC}
  -22,                                    ! Humidity Indicating Conditions at Maximum Dry-Bulb {BasedOnField A3}
  98100,                                  ! Barometric Pressure {Pa}
  4.4,                                    ! Wind Speed {m/s}
  280,                                    ! Wind Direction {deg}
  0,                                      ! Sky Clearness
  0,                                      ! Rain Indicator
  0,                                      ! Snow Indicator
  21,                                     ! Day of Month
  1,                                      ! Month
  WinterDesignDay,                        ! Day Type
  0,                                      ! Daylight Saving Time Indicator
  Dewpoint,                               ! Humidity Indicating Type
  ,                                       ! Humidity Indicating Day Schedule Name
  DefaultMultipliers,                     ! Dry-Bulb Temperature Range Modifier Type
  ,                                       ! Dry-Bulb Temperature Range Modifier Schedule Name
  ASHRAEClearSky;                         ! Solar Model Indicator

