
OS:Version,
  {166de4fd-094f-412a-915c-994f8b94c3bd}, ! Handle
  0.9.3;                                  ! Version Identifier

OS:SizingPeriod:DesignDay,
  {2e73de7a-c5c1-4154-9c55-aac9ac58ac9b}, ! Handle
  Lake Charles Ann Clg 1% Condns Enth=>MDB, ! Name
  31,                                     ! Maximum Dry-Bulb Temperature {C}
  8.6,                                    ! Daily Dry-Bulb Temperature Range {deltaC}
  84500,                                  ! Humidity Indicating Conditions at Maximum Dry-Bulb {BasedOnField A3}
  101205,                                 ! Barometric Pressure {Pa}
  3.3,                                    ! Wind Speed {m/s}
  230,                                    ! Wind Direction {deg}
  0,                                      ! Sky Clearness
  0,                                      ! Rain Indicator
  0,                                      ! Snow Indicator
  21,                                     ! Day of Month
  7,                                      ! Month
  SummerDesignDay,                        ! Day Type
  0,                                      ! Daylight Saving Time Indicator
  Enthalpy,                               ! Humidity Indicating Type
  ,                                       ! Humidity Indicating Day Schedule Name
  DefaultMultipliers,                     ! Dry-Bulb Temperature Range Modifier Type
  ,                                       ! Dry-Bulb Temperature Range Modifier Schedule Name
  ASHRAETau,                              ! Solar Model Indicator
  ,                                       ! Beam Solar Day Schedule Name
  ,                                       ! Diffuse Solar Day Schedule Name
  0.528,                                  ! ASHRAE Taub {dimensionless}
  1.904;                                  ! ASHRAE Taud {dimensionless}

OS:ComponentData,
  {6fc37a13-0619-4d4a-ba42-cf129b128b0f}, ! Handle
  Component Data 1,                       ! Name
  {edf6bd7c-7877-46fe-be30-52ac15da2180}, ! UUID
  {cacc47e6-f826-475d-9a7e-218719c99aa6}, ! Version UUID
  1366307729,                             ! Creation Timestamp
  1366307729,                             ! Version Timestamp
  {2e73de7a-c5c1-4154-9c55-aac9ac58ac9b}; ! Name of Object 1

