
OS:Version,
  {ff765f1f-ba05-4ca7-8c74-35daf4a4b35c}, ! Handle
  0.9.3;                                  ! Version Identifier

OS:SizingPeriod:DesignDay,
  {d0465ee5-80c8-47b4-ba6a-e8a8f1fb32e0}, ! Handle
  Clayton Municipal Airpark Ann Htg 99% Condns DB, ! Name
  -11.3,                                  ! Maximum Dry-Bulb Temperature {C}
  0,                                      ! Daily Dry-Bulb Temperature Range {deltaC}
  -11.3,                                  ! Humidity Indicating Conditions at Maximum Dry-Bulb {BasedOnField A3}
  84431,                                  ! Barometric Pressure {Pa}
  4.2,                                    ! Wind Speed {m/s}
  30,                                     ! Wind Direction {deg}
  0,                                      ! Sky Clearness
  0,                                      ! Rain Indicator
  0,                                      ! Snow Indicator
  21,                                     ! Day of Month
  12,                                     ! Month
  WinterDesignDay,                        ! Day Type
  0,                                      ! Daylight Saving Time Indicator
  Wetbulb,                                ! Humidity Indicating Type
  ,                                       ! Humidity Indicating Day Schedule Name
  DefaultMultipliers,                     ! Dry-Bulb Temperature Range Modifier Type
  ,                                       ! Dry-Bulb Temperature Range Modifier Schedule Name
  ASHRAEClearSky;                         ! Solar Model Indicator

OS:ComponentData,
  {2f4ccb5c-c130-426b-812a-9870e5d4f015}, ! Handle
  Component Data 1,                       ! Name
  {821f6c43-c53d-488d-a9b3-a0901416b9d7}, ! UUID
  {3a315f48-eb52-45db-a630-ec72eca6c319}, ! Version UUID
  1366309384,                             ! Creation Timestamp
  1366309384,                             ! Version Timestamp
  {d0465ee5-80c8-47b4-ba6a-e8a8f1fb32e0}; ! Name of Object 1

