
OS:Version,
  {7cfc7199-d698-4a04-80f6-6c3ebeb72cda}, ! Handle
  0.9.3;                                  ! Version Identifier

OS:SizingPeriod:DesignDay,
  {ee495513-fed4-49a8-90c8-62adea95bf82}, ! Handle
  Hanford Ann Htg 99% Condns DB,          ! Name
  -10.8,                                  ! Maximum Dry-Bulb Temperature {C}
  0,                                      ! Daily Dry-Bulb Temperature Range {deltaC}
  -10.8,                                  ! Humidity Indicating Conditions at Maximum Dry-Bulb {BasedOnField A3}
  98675,                                  ! Barometric Pressure {Pa}
  2.2,                                    ! Wind Speed {m/s}
  290,                                    ! Wind Direction {deg}
  0,                                      ! Sky Clearness
  0,                                      ! Rain Indicator
  0,                                      ! Snow Indicator
  21,                                     ! Day of Month
  12,                                     ! Month
  WinterDesignDay,                        ! Day Type
  0,                                      ! Daylight Saving Time Indicator
  Wetbulb,                                ! Humidity Indicating Type
  ,                                       ! Humidity Indicating Day Schedule Name
  DefaultMultipliers,                     ! Dry-Bulb Temperature Range Modifier Type
  ,                                       ! Dry-Bulb Temperature Range Modifier Schedule Name
  ASHRAEClearSky;                         ! Solar Model Indicator

OS:ComponentData,
  {1684b25c-47ce-407a-82ce-08f040252d53}, ! Handle
  Component Data 1,                       ! Name
  {24c8b8c3-f7a5-4d3d-a801-d4e2972be43d}, ! UUID
  {74851052-8aee-4b66-97ac-7288d4604f9c}, ! Version UUID
  1366311285,                             ! Creation Timestamp
  1366311285,                             ! Version Timestamp
  {ee495513-fed4-49a8-90c8-62adea95bf82}; ! Name of Object 1

