
OS:Version,
  {919fea3d-3c26-4d3f-90c7-4dd6752dce6e}, ! Handle
  0.9.3;                                  ! Version Identifier

OS:SizingPeriod:DesignDay,
  {906004d7-323a-46c3-9334-2dd928d0b075}, ! Handle
  Luke Afb Ann Htg Wind 99.6% Condns WS=>MCDB, ! Name
  13.3,                                   ! Maximum Dry-Bulb Temperature {C}
  0,                                      ! Daily Dry-Bulb Temperature Range {deltaC}
  13.3,                                   ! Humidity Indicating Conditions at Maximum Dry-Bulb {BasedOnField A3}
  97411,                                  ! Barometric Pressure {Pa}
  9.4,                                    ! Wind Speed {m/s}
  340,                                    ! Wind Direction {deg}
  0,                                      ! Sky Clearness
  0,                                      ! Rain Indicator
  0,                                      ! Snow Indicator
  21,                                     ! Day of Month
  12,                                     ! Month
  WinterDesignDay,                        ! Day Type
  0,                                      ! Daylight Saving Time Indicator
  Wetbulb,                                ! Humidity Indicating Type
  ,                                       ! Humidity Indicating Day Schedule Name
  DefaultMultipliers,                     ! Dry-Bulb Temperature Range Modifier Type
  ,                                       ! Dry-Bulb Temperature Range Modifier Schedule Name
  ASHRAEClearSky;                         ! Solar Model Indicator

OS:ComponentData,
  {39056360-f324-4305-8379-584e1dfbc254}, ! Handle
  Component Data 1,                       ! Name
  {3b7d0cb2-6839-4a57-8f72-e7a68379314f}, ! UUID
  {585024c2-12ad-48d2-aeb7-cccd2f470870}, ! Version UUID
  1366306283,                             ! Creation Timestamp
  1366306283,                             ! Version Timestamp
  {906004d7-323a-46c3-9334-2dd928d0b075}; ! Name of Object 1

