
OS:Version,
  {1dd7a551-8150-4554-b0b5-9e6fc36f3ce7}, ! Handle
  0.9.3;                                  ! Version Identifier

OS:SizingPeriod:DesignDay,
  {be2aed2f-1dfd-4780-bcdf-54a2b3c350fc}, ! Handle
  Kotzebue Ralph Wein Memorial Ann Clg .4% Condns Enth=>MDB, ! Name
  19,                                     ! Maximum Dry-Bulb Temperature {C}
  4.9,                                    ! Daily Dry-Bulb Temperature Range {deltaC}
  44600,                                  ! Humidity Indicating Conditions at Maximum Dry-Bulb {BasedOnField A3}
  101289,                                 ! Barometric Pressure {Pa}
  4.7,                                    ! Wind Speed {m/s}
  300,                                    ! Wind Direction {deg}
  0,                                      ! Sky Clearness
  0,                                      ! Rain Indicator
  0,                                      ! Snow Indicator
  21,                                     ! Day of Month
  7,                                      ! Month
  SummerDesignDay,                        ! Day Type
  0,                                      ! Daylight Saving Time Indicator
  Enthalpy,                               ! Humidity Indicating Type
  ,                                       ! Humidity Indicating Day Schedule Name
  DefaultMultipliers,                     ! Dry-Bulb Temperature Range Modifier Type
  ,                                       ! Dry-Bulb Temperature Range Modifier Schedule Name
  ASHRAETau,                              ! Solar Model Indicator
  ,                                       ! Beam Solar Day Schedule Name
  ,                                       ! Diffuse Solar Day Schedule Name
  0.374,                                  ! ASHRAE Taub {dimensionless}
  2.244;                                  ! ASHRAE Taud {dimensionless}

OS:ComponentData,
  {1c980c7a-3837-4308-99bc-9e908ba88ef0}, ! Handle
  Component Data 1,                       ! Name
  {4422c1a0-0c66-4cac-ac02-a7628a5212b8}, ! UUID
  {069078c4-fc08-4560-858e-9db8649c3a45}, ! Version UUID
  1366305390,                             ! Creation Timestamp
  1366305390,                             ! Version Timestamp
  {be2aed2f-1dfd-4780-bcdf-54a2b3c350fc}; ! Name of Object 1

