
OS:Version,
  {54eec6a2-87a2-402e-ac08-6d36fb314641}, ! Handle
  0.9.3;                                  ! Version Identifier

OS:SizingPeriod:DesignDay,
  {5b550447-d43c-43da-bf7b-1eecc48dab9a}, ! Handle
  Cox Fld Ann Htg Wind 99% Condns WS=>MCDB, ! Name
  9.9,                                    ! Maximum Dry-Bulb Temperature {C}
  0,                                      ! Daily Dry-Bulb Temperature Range {deltaC}
  9.9,                                    ! Humidity Indicating Conditions at Maximum Dry-Bulb {BasedOnField A3}
  99288,                                  ! Barometric Pressure {Pa}
  11.6,                                   ! Wind Speed {m/s}
  350,                                    ! Wind Direction {deg}
  0,                                      ! Sky Clearness
  0,                                      ! Rain Indicator
  0,                                      ! Snow Indicator
  21,                                     ! Day of Month
  1,                                      ! Month
  WinterDesignDay,                        ! Day Type
  0,                                      ! Daylight Saving Time Indicator
  Wetbulb,                                ! Humidity Indicating Type
  ,                                       ! Humidity Indicating Day Schedule Name
  DefaultMultipliers,                     ! Dry-Bulb Temperature Range Modifier Type
  ,                                       ! Dry-Bulb Temperature Range Modifier Schedule Name
  ASHRAEClearSky;                         ! Solar Model Indicator

OS:ComponentData,
  {3401f6c6-e9d3-425c-bfaf-29d7b012acae}, ! Handle
  Component Data 1,                       ! Name
  {f8debeca-0923-413e-a7cb-22fb0590c0df}, ! UUID
  {3614c125-cd0f-4f4a-aa3e-38ec71659da5}, ! Version UUID
  1366310645,                             ! Creation Timestamp
  1366310645,                             ! Version Timestamp
  {5b550447-d43c-43da-bf7b-1eecc48dab9a}; ! Name of Object 1

