
OS:Version,
  {f6f1e9fc-4d13-4d1b-bbcf-66be3c1d8182}, ! Handle
  0.9.3;                                  ! Version Identifier

OS:SizingPeriod:DesignDay,
  {dc36e95d-627b-45fc-92d7-a1d05f0ad028}, ! Handle
  Chan Gurney Muni Ann Clg 1% Condns DP=>MDB, ! Name
  27.8,                                   ! Maximum Dry-Bulb Temperature {C}
  10.7,                                   ! Daily Dry-Bulb Temperature Range {deltaC}
  22.4,                                   ! Humidity Indicating Conditions at Maximum Dry-Bulb {BasedOnField A3}
  96519,                                  ! Barometric Pressure {Pa}
  6.7,                                    ! Wind Speed {m/s}
  180,                                    ! Wind Direction {deg}
  0,                                      ! Sky Clearness
  0,                                      ! Rain Indicator
  0,                                      ! Snow Indicator
  21,                                     ! Day of Month
  7,                                      ! Month
  SummerDesignDay,                        ! Day Type
  0,                                      ! Daylight Saving Time Indicator
  Dewpoint,                               ! Humidity Indicating Type
  ,                                       ! Humidity Indicating Day Schedule Name
  DefaultMultipliers,                     ! Dry-Bulb Temperature Range Modifier Type
  ,                                       ! Dry-Bulb Temperature Range Modifier Schedule Name
  ASHRAETau,                              ! Solar Model Indicator
  ,                                       ! Beam Solar Day Schedule Name
  ,                                       ! Diffuse Solar Day Schedule Name
  0.399,                                  ! ASHRAE Taub {dimensionless}
  2.259;                                  ! ASHRAE Taud {dimensionless}

OS:ComponentData,
  {7e1a0c1b-fdc5-4754-9d57-15b794d2af7e}, ! Handle
  Component Data 1,                       ! Name
  {98d6c26a-45c8-4f01-892d-ec52d7b95547}, ! UUID
  {9d4dfbf2-6ace-4103-a4ea-dee098214b0b}, ! Version UUID
  1366310473,                             ! Creation Timestamp
  1366310473,                             ! Version Timestamp
  {dc36e95d-627b-45fc-92d7-a1d05f0ad028}; ! Name of Object 1

