
OS:Version,
  {89adbc73-7844-4521-9e9d-09942febe0ed}, ! Handle
  0.9.3;                                  ! Version Identifier

OS:SizingPeriod:DesignDay,
  {2a65c1b2-52c4-4ccb-a98b-4963d3aa4fa5}, ! Handle
  Anchorage Intl Ap Ann Clg 1% Condns DB=>MWB, ! Name
  20.2,                                   ! Maximum Dry-Bulb Temperature {C}
  6.6,                                    ! Daily Dry-Bulb Temperature Range {deltaC}
  14,                                     ! Humidity Indicating Conditions at Maximum Dry-Bulb {BasedOnField A3}
  100905,                                 ! Barometric Pressure {Pa}
  3.6,                                    ! Wind Speed {m/s}
  300,                                    ! Wind Direction {deg}
  0,                                      ! Sky Clearness
  0,                                      ! Rain Indicator
  0,                                      ! Snow Indicator
  21,                                     ! Day of Month
  7,                                      ! Month
  SummerDesignDay,                        ! Day Type
  0,                                      ! Daylight Saving Time Indicator
  Wetbulb,                                ! Humidity Indicating Type
  ,                                       ! Humidity Indicating Day Schedule Name
  DefaultMultipliers,                     ! Dry-Bulb Temperature Range Modifier Type
  ,                                       ! Dry-Bulb Temperature Range Modifier Schedule Name
  ASHRAETau,                              ! Solar Model Indicator
  ,                                       ! Beam Solar Day Schedule Name
  ,                                       ! Diffuse Solar Day Schedule Name
  0.387,                                  ! ASHRAE Taub {dimensionless}
  2.172;                                  ! ASHRAE Taud {dimensionless}

OS:ComponentData,
  {cb9c8f72-b07e-4368-8771-1be740525786}, ! Handle
  Component Data 1,                       ! Name
  {0a432b13-d536-449e-9b4a-ddba404e4482}, ! UUID
  {402324d4-5747-49d4-ac5f-9c6d4b606192}, ! Version UUID
  1366304708,                             ! Creation Timestamp
  1366304708,                             ! Version Timestamp
  {2a65c1b2-52c4-4ccb-a98b-4963d3aa4fa5}; ! Name of Object 1

