
OS:Version,
  {a6553d88-ac4f-4165-9355-9892f399b217}, ! Handle
  0.9.3;                                  ! Version Identifier

OS:SizingPeriod:DesignDay,
  {e1c65d7b-0d7d-493d-a19c-ce3f58eb8c86}, ! Handle
  Houston Ellington Afb  Clear Ann Clg 2% Condns DP=>MDB, ! Name
  28.6,                                   ! Maximum Dry-Bulb Temperature {C}
  9.2,                                    ! Daily Dry-Bulb Temperature Range {deltaC}
  26,                                     ! Humidity Indicating Conditions at Maximum Dry-Bulb {BasedOnField A3}
  101253,                                 ! Barometric Pressure {Pa}
  3.5,                                    ! Wind Speed {m/s}
  160,                                    ! Wind Direction {deg}
  0,                                      ! Sky Clearness
  0,                                      ! Rain Indicator
  0,                                      ! Snow Indicator
  21,                                     ! Day of Month
  7,                                      ! Month
  SummerDesignDay,                        ! Day Type
  0,                                      ! Daylight Saving Time Indicator
  Dewpoint,                               ! Humidity Indicating Type
  ,                                       ! Humidity Indicating Day Schedule Name
  DefaultMultipliers,                     ! Dry-Bulb Temperature Range Modifier Type
  ,                                       ! Dry-Bulb Temperature Range Modifier Schedule Name
  ASHRAETau,                              ! Solar Model Indicator
  ,                                       ! Beam Solar Day Schedule Name
  ,                                       ! Diffuse Solar Day Schedule Name
  0.503,                                  ! ASHRAE Taub {dimensionless}
  1.96;                                   ! ASHRAE Taud {dimensionless}

OS:ComponentData,
  {70b51584-1675-4932-bc4a-7ef624cb5be4}, ! Handle
  Component Data 1,                       ! Name
  {289c9b6b-b21c-48f1-b186-c58a779e28f0}, ! UUID
  {baf82a4f-d1ca-49a4-9ba3-3627a8c31e2c}, ! Version UUID
  1366310752,                             ! Creation Timestamp
  1366310752,                             ! Version Timestamp
  {e1c65d7b-0d7d-493d-a19c-ce3f58eb8c86}; ! Name of Object 1

