
OS:Version,
  {cc3f63db-6f44-464f-b870-34ddb823144c}, ! Handle
  0.9.3;                                  ! Version Identifier

OS:SizingPeriod:DesignDay,
  {36097966-6e18-4a69-a53f-1c44cf25c021}, ! Handle
  FRESNO Ann Clg .4% Condns Enth=>MDB,    ! Name
  36.7,                                   ! Maximum Dry-Bulb Temperature {C}
  16.4,                                   ! Daily Dry-Bulb Temperature Range {deltaC}
  69000,                                  ! Humidity Indicating Conditions at Maximum Dry-Bulb {BasedOnField A3}
  100129,                                 ! Barometric Pressure {Pa}
  3.7,                                    ! Wind Speed {m/s}
  300,                                    ! Wind Direction {deg}
  0,                                      ! Sky Clearness
  0,                                      ! Rain Indicator
  0,                                      ! Snow Indicator
  21,                                     ! Day of Month
  7,                                      ! Month
  SummerDesignDay,                        ! Day Type
  0,                                      ! Daylight Saving Time Indicator
  Enthalpy,                               ! Humidity Indicating Type
  ,                                       ! Humidity Indicating Day Schedule Name
  DefaultMultipliers,                     ! Dry-Bulb Temperature Range Modifier Type
  ,                                       ! Dry-Bulb Temperature Range Modifier Schedule Name
  ASHRAETau,                              ! Solar Model Indicator
  ,                                       ! Beam Solar Day Schedule Name
  ,                                       ! Diffuse Solar Day Schedule Name
  0.428,                                  ! ASHRAE Taub {dimensionless}
  2.152;                                  ! ASHRAE Taud {dimensionless}

OS:ComponentData,
  {494f82a6-86b2-446c-9edb-de82d36586f3}, ! Handle
  Component Data 1,                       ! Name
  {3f0db7de-2307-4c7b-ae41-4589b078d2f9}, ! UUID
  {792e85fe-f1f1-4932-bde6-4d9534b26de7}, ! Version UUID
  1366306434,                             ! Creation Timestamp
  1366306434,                             ! Version Timestamp
  {36097966-6e18-4a69-a53f-1c44cf25c021}; ! Name of Object 1

