
OS:Version,
  {0edb1391-32f8-47e7-9aa9-c80ce1d2d88b}, ! Handle
  0.9.3;                                  ! Version Identifier

OS:SizingPeriod:DesignDay,
  {b98dbd99-c8e9-49f0-9764-e795ab8cfe6b}, ! Handle
  Bethel Ann Clg 1% Condns Enth=>MDB,     ! Name
  19.3,                                   ! Maximum Dry-Bulb Temperature {C}
  7.7,                                    ! Daily Dry-Bulb Temperature Range {deltaC}
  41400,                                  ! Humidity Indicating Conditions at Maximum Dry-Bulb {BasedOnField A3}
  100774,                                 ! Barometric Pressure {Pa}
  4.9,                                    ! Wind Speed {m/s}
  10,                                     ! Wind Direction {deg}
  0,                                      ! Sky Clearness
  0,                                      ! Rain Indicator
  0,                                      ! Snow Indicator
  21,                                     ! Day of Month
  7,                                      ! Month
  SummerDesignDay,                        ! Day Type
  0,                                      ! Daylight Saving Time Indicator
  Enthalpy,                               ! Humidity Indicating Type
  ,                                       ! Humidity Indicating Day Schedule Name
  DefaultMultipliers,                     ! Dry-Bulb Temperature Range Modifier Type
  ,                                       ! Dry-Bulb Temperature Range Modifier Schedule Name
  ASHRAETau,                              ! Solar Model Indicator
  ,                                       ! Beam Solar Day Schedule Name
  ,                                       ! Diffuse Solar Day Schedule Name
  0.383,                                  ! ASHRAE Taub {dimensionless}
  2.185;                                  ! ASHRAE Taud {dimensionless}

OS:ComponentData,
  {242fcc8f-a32b-41d4-a1e9-38f469e5927a}, ! Handle
  Component Data 1,                       ! Name
  {24a3d1ed-41b5-4d33-8e14-ef23057977e3}, ! UUID
  {3ef2ab40-25bb-498c-8d7b-4eb1dc7deb56}, ! Version UUID
  1366304753,                             ! Creation Timestamp
  1366304753,                             ! Version Timestamp
  {b98dbd99-c8e9-49f0-9764-e795ab8cfe6b}; ! Name of Object 1

