
OS:Version,
  {655c811f-c429-43a8-9edf-6fae21da03d3}, ! Handle
  0.9.3;                                  ! Version Identifier

OS:SizingPeriod:DesignDay,
  {cf9a29db-ab35-4010-8cbc-5c03210f42a8}, ! Handle
  Dillon Ann Htg 99.6% Condns DB,         ! Name
  -21.4,                                  ! Maximum Dry-Bulb Temperature {C}
  0,                                      ! Daily Dry-Bulb Temperature Range {deltaC}
  -21.4,                                  ! Humidity Indicating Conditions at Maximum Dry-Bulb {BasedOnField A3}
  83554,                                  ! Barometric Pressure {Pa}
  3,                                      ! Wind Speed {m/s}
  180,                                    ! Wind Direction {deg}
  0,                                      ! Sky Clearness
  0,                                      ! Rain Indicator
  0,                                      ! Snow Indicator
  21,                                     ! Day of Month
  12,                                     ! Month
  WinterDesignDay,                        ! Day Type
  0,                                      ! Daylight Saving Time Indicator
  Wetbulb,                                ! Humidity Indicating Type
  ,                                       ! Humidity Indicating Day Schedule Name
  DefaultMultipliers,                     ! Dry-Bulb Temperature Range Modifier Type
  ,                                       ! Dry-Bulb Temperature Range Modifier Schedule Name
  ASHRAEClearSky;                         ! Solar Model Indicator

OS:ComponentData,
  {d9f2877f-deb4-4109-a460-e75168418656}, ! Handle
  Component Data 1,                       ! Name
  {692d3781-04c2-437d-882f-228829d50c36}, ! UUID
  {310cefe5-d946-4ecd-b4b1-d30fa5638c14}, ! Version UUID
  1366308749,                             ! Creation Timestamp
  1366308749,                             ! Version Timestamp
  {cf9a29db-ab35-4010-8cbc-5c03210f42a8}; ! Name of Object 1

