
OS:Version,
  {0858559f-6ff2-442a-acba-2a4cd1fcfa24}, ! Handle
  0.9.3;                                  ! Version Identifier

OS:SizingPeriod:DesignDay,
  {39de123a-978c-4e94-aee4-bb601e46daaf}, ! Handle
  Clinton Sherman Ann Hum_n 99% Condns DP=>MCDB, ! Name
  -2.8,                                   ! Maximum Dry-Bulb Temperature {C}
  0,                                      ! Daily Dry-Bulb Temperature Range {deltaC}
  -13.7,                                  ! Humidity Indicating Conditions at Maximum Dry-Bulb {BasedOnField A3}
  94480,                                  ! Barometric Pressure {Pa}
  5.2,                                    ! Wind Speed {m/s}
  10,                                     ! Wind Direction {deg}
  0,                                      ! Sky Clearness
  0,                                      ! Rain Indicator
  0,                                      ! Snow Indicator
  21,                                     ! Day of Month
  1,                                      ! Month
  WinterDesignDay,                        ! Day Type
  0,                                      ! Daylight Saving Time Indicator
  Dewpoint,                               ! Humidity Indicating Type
  ,                                       ! Humidity Indicating Day Schedule Name
  DefaultMultipliers,                     ! Dry-Bulb Temperature Range Modifier Type
  ,                                       ! Dry-Bulb Temperature Range Modifier Schedule Name
  ASHRAEClearSky;                         ! Solar Model Indicator

OS:ComponentData,
  {675eb5d6-06d2-46e7-912c-c3a00004679b}, ! Handle
  Component Data 1,                       ! Name
  {7e6005e8-8dda-4d7f-b9a4-fd61ef374283}, ! UUID
  {005774bd-a794-46a1-a3a9-e6e9fad3afc0}, ! Version UUID
  1366309883,                             ! Creation Timestamp
  1366309883,                             ! Version Timestamp
  {39de123a-978c-4e94-aee4-bb601e46daaf}; ! Name of Object 1

