
OS:Version,
  {a47f75a6-82c8-4b96-95c8-eeb9fbfaa6f1}, ! Handle
  0.9.3;                                  ! Version Identifier

OS:SizingPeriod:DesignDay,
  {92a4882f-2f71-4012-9b3d-cc57cd3f9f2b}, ! Handle
  Aitkin Ndb Awos Ann Clg 1% Condns DB=>MWB, ! Name
  27.9,                                   ! Maximum Dry-Bulb Temperature {C}
  12.5,                                   ! Daily Dry-Bulb Temperature Range {deltaC}
  22.6,                                   ! Humidity Indicating Conditions at Maximum Dry-Bulb {BasedOnField A3}
  96993,                                  ! Barometric Pressure {Pa}
  4,                                      ! Wind Speed {m/s}
  160,                                    ! Wind Direction {deg}
  0,                                      ! Sky Clearness
  0,                                      ! Rain Indicator
  0,                                      ! Snow Indicator
  21,                                     ! Day of Month
  7,                                      ! Month
  SummerDesignDay,                        ! Day Type
  0,                                      ! Daylight Saving Time Indicator
  Wetbulb,                                ! Humidity Indicating Type
  ,                                       ! Humidity Indicating Day Schedule Name
  DefaultMultipliers,                     ! Dry-Bulb Temperature Range Modifier Type
  ,                                       ! Dry-Bulb Temperature Range Modifier Schedule Name
  ASHRAETau,                              ! Solar Model Indicator
  ,                                       ! Beam Solar Day Schedule Name
  ,                                       ! Diffuse Solar Day Schedule Name
  0.396,                                  ! ASHRAE Taub {dimensionless}
  2.234;                                  ! ASHRAE Taud {dimensionless}

OS:ComponentData,
  {af40a373-6892-4598-bad3-5d4449fb1562}, ! Handle
  Component Data 1,                       ! Name
  {c48561a6-00a9-4183-94de-df4b7fb87dec}, ! UUID
  {ad78a7cd-3604-4a12-add5-4f5da61c2c81}, ! Version UUID
  1366308135,                             ! Creation Timestamp
  1366308135,                             ! Version Timestamp
  {92a4882f-2f71-4012-9b3d-cc57cd3f9f2b}; ! Name of Object 1

