
OS:Version,
  {73a3078b-e436-4f18-8ae0-182e2db60383}, ! Handle
  0.9.3;                                  ! Version Identifier

OS:SizingPeriod:DesignDay,
  {0de60413-a429-4bbf-9161-6ca50950e9d0}, ! Handle
  Auburn Lewiston Ann Clg .4% Condns DB=>MWB, ! Name
  31,                                     ! Maximum Dry-Bulb Temperature {C}
  11.4,                                   ! Daily Dry-Bulb Temperature Range {deltaC}
  21.4,                                   ! Humidity Indicating Conditions at Maximum Dry-Bulb {BasedOnField A3}
  100272,                                 ! Barometric Pressure {Pa}
  4,                                      ! Wind Speed {m/s}
  210,                                    ! Wind Direction {deg}
  0,                                      ! Sky Clearness
  0,                                      ! Rain Indicator
  0,                                      ! Snow Indicator
  21,                                     ! Day of Month
  7,                                      ! Month
  SummerDesignDay,                        ! Day Type
  0,                                      ! Daylight Saving Time Indicator
  Wetbulb,                                ! Humidity Indicating Type
  ,                                       ! Humidity Indicating Day Schedule Name
  DefaultMultipliers,                     ! Dry-Bulb Temperature Range Modifier Type
  ,                                       ! Dry-Bulb Temperature Range Modifier Schedule Name
  ASHRAETau,                              ! Solar Model Indicator
  ,                                       ! Beam Solar Day Schedule Name
  ,                                       ! Diffuse Solar Day Schedule Name
  0.462,                                  ! ASHRAE Taub {dimensionless}
  2.003;                                  ! ASHRAE Taud {dimensionless}

