
OS:Version,
  {757cf3c0-ed7e-443f-b5d0-ac9dbf31e64d}, ! Handle
  0.9.3;                                  ! Version Identifier

OS:SizingPeriod:DesignDay,
  {4a993af2-5179-4615-a423-f0906a2e1243}, ! Handle
  Alice Intl Ap Ann Clg 2% Condns DB=>MWB, ! Name
  35.9,                                   ! Maximum Dry-Bulb Temperature {C}
  12,                                     ! Daily Dry-Bulb Temperature Range {deltaC}
  24.7,                                   ! Humidity Indicating Conditions at Maximum Dry-Bulb {BasedOnField A3}
  100690,                                 ! Barometric Pressure {Pa}
  5.5,                                    ! Wind Speed {m/s}
  140,                                    ! Wind Direction {deg}
  0,                                      ! Sky Clearness
  0,                                      ! Rain Indicator
  0,                                      ! Snow Indicator
  21,                                     ! Day of Month
  7,                                      ! Month
  SummerDesignDay,                        ! Day Type
  0,                                      ! Daylight Saving Time Indicator
  Wetbulb,                                ! Humidity Indicating Type
  ,                                       ! Humidity Indicating Day Schedule Name
  DefaultMultipliers,                     ! Dry-Bulb Temperature Range Modifier Type
  ,                                       ! Dry-Bulb Temperature Range Modifier Schedule Name
  ASHRAETau,                              ! Solar Model Indicator
  ,                                       ! Beam Solar Day Schedule Name
  ,                                       ! Diffuse Solar Day Schedule Name
  0.449,                                  ! ASHRAE Taub {dimensionless}
  2.159;                                  ! ASHRAE Taud {dimensionless}

OS:ComponentData,
  {590ebc16-398c-4f8b-8a95-318be7fe0667}, ! Handle
  Component Data 1,                       ! Name
  {8ce4cc68-054d-43ae-8bf7-86fb5ce018c0}, ! UUID
  {5dc10da4-6797-4b51-911c-4c32c3537d53}, ! Version UUID
  1366310562,                             ! Creation Timestamp
  1366310562,                             ! Version Timestamp
  {4a993af2-5179-4615-a423-f0906a2e1243}; ! Name of Object 1

