
OS:Version,
  {323e9ee1-92eb-46be-b305-478e67090385}, ! Handle
  0.9.3;                                  ! Version Identifier

OS:SizingPeriod:DesignDay,
  {f19bc325-3c96-4a5a-ab58-86ae6c2a1188}, ! Handle
  Kona Intl At Keahol Ann Clg .4% Condns DP=>MDB, ! Name
  28,                                     ! Maximum Dry-Bulb Temperature {C}
  5.8,                                    ! Daily Dry-Bulb Temperature Range {deltaC}
  23.9,                                   ! Humidity Indicating Conditions at Maximum Dry-Bulb {BasedOnField A3}
  101145,                                 ! Barometric Pressure {Pa}
  5.7,                                    ! Wind Speed {m/s}
  210,                                    ! Wind Direction {deg}
  0,                                      ! Sky Clearness
  0,                                      ! Rain Indicator
  0,                                      ! Snow Indicator
  21,                                     ! Day of Month
  8,                                      ! Month
  SummerDesignDay,                        ! Day Type
  0,                                      ! Daylight Saving Time Indicator
  Dewpoint,                               ! Humidity Indicating Type
  ,                                       ! Humidity Indicating Day Schedule Name
  DefaultMultipliers,                     ! Dry-Bulb Temperature Range Modifier Type
  ,                                       ! Dry-Bulb Temperature Range Modifier Schedule Name
  ASHRAETau,                              ! Solar Model Indicator
  ,                                       ! Beam Solar Day Schedule Name
  ,                                       ! Diffuse Solar Day Schedule Name
  0.404,                                  ! ASHRAE Taub {dimensionless}
  2.462;                                  ! ASHRAE Taud {dimensionless}

OS:ComponentData,
  {4b2a463c-b51a-4a96-ba4a-df2f0cd603f0}, ! Handle
  Component Data 1,                       ! Name
  {4d0de7f2-dec0-4a7b-b73f-b52ad1f93dd5}, ! UUID
  {d438df30-cead-418f-8880-1f49fd1e4f04}, ! Version UUID
  1366307109,                             ! Creation Timestamp
  1366307109,                             ! Version Timestamp
  {f19bc325-3c96-4a5a-ab58-86ae6c2a1188}; ! Name of Object 1

