
OS:Version,
  {822084aa-5fe6-46f4-a1a4-f4c364d35b0f}, ! Handle
  0.9.3;                                  ! Version Identifier

OS:SizingPeriod:DesignDay,
  {34535ee4-e7c4-4478-8a9b-aec353efca05}, ! Handle
  Gulkana Ann Clg .4% Condns WB=>MDB,     ! Name
  23.7,                                   ! Maximum Dry-Bulb Temperature {C}
  11.7,                                   ! Daily Dry-Bulb Temperature Range {deltaC}
  15.1,                                   ! Humidity Indicating Conditions at Maximum Dry-Bulb {BasedOnField A3}
  95679,                                  ! Barometric Pressure {Pa}
  2.6,                                    ! Wind Speed {m/s}
  160,                                    ! Wind Direction {deg}
  0,                                      ! Sky Clearness
  0,                                      ! Rain Indicator
  0,                                      ! Snow Indicator
  21,                                     ! Day of Month
  7,                                      ! Month
  SummerDesignDay,                        ! Day Type
  0,                                      ! Daylight Saving Time Indicator
  Wetbulb,                                ! Humidity Indicating Type
  ,                                       ! Humidity Indicating Day Schedule Name
  DefaultMultipliers,                     ! Dry-Bulb Temperature Range Modifier Type
  ,                                       ! Dry-Bulb Temperature Range Modifier Schedule Name
  ASHRAETau,                              ! Solar Model Indicator
  ,                                       ! Beam Solar Day Schedule Name
  ,                                       ! Diffuse Solar Day Schedule Name
  0.385,                                  ! ASHRAE Taub {dimensionless}
  2.111;                                  ! ASHRAE Taud {dimensionless}

OS:ComponentData,
  {ef71147d-1509-4389-a119-aeec6b4a1f20}, ! Handle
  Component Data 1,                       ! Name
  {0b506e13-7b09-4215-9dda-e4117306f927}, ! UUID
  {de6ec6b8-7cc0-49d9-ac08-10bf6907da97}, ! Version UUID
  1366305282,                             ! Creation Timestamp
  1366305282,                             ! Version Timestamp
  {34535ee4-e7c4-4478-8a9b-aec353efca05}; ! Name of Object 1

