
OS:Version,
  {1bab5b7c-0c0f-4af3-8a7d-63a076cf7795}, ! Handle
  0.9.3;                                  ! Version Identifier

OS:SizingPeriod:DesignDay,
  {3012b49f-0716-47d2-9027-7b2811e53f98}, ! Handle
  Limon Ann Hum_n 99.6% Condns DP=>MCDB,  ! Name
  -19.5,                                  ! Maximum Dry-Bulb Temperature {C}
  0,                                      ! Daily Dry-Bulb Temperature Range {deltaC}
  -24.4,                                  ! Humidity Indicating Conditions at Maximum Dry-Bulb {BasedOnField A3}
  82552,                                  ! Barometric Pressure {Pa}
  3.3,                                    ! Wind Speed {m/s}
  0,                                      ! Wind Direction {deg}
  0,                                      ! Sky Clearness
  0,                                      ! Rain Indicator
  0,                                      ! Snow Indicator
  21,                                     ! Day of Month
  12,                                     ! Month
  WinterDesignDay,                        ! Day Type
  0,                                      ! Daylight Saving Time Indicator
  Dewpoint,                               ! Humidity Indicating Type
  ,                                       ! Humidity Indicating Day Schedule Name
  DefaultMultipliers,                     ! Dry-Bulb Temperature Range Modifier Type
  ,                                       ! Dry-Bulb Temperature Range Modifier Schedule Name
  ASHRAEClearSky;                         ! Solar Model Indicator

OS:ComponentData,
  {6dc41bc0-8bd1-4557-b492-64f769616195}, ! Handle
  Component Data 1,                       ! Name
  {ca4624ab-e736-4e53-9c5a-ed0bac51b637}, ! UUID
  {197a7658-4ee4-49b5-b801-2c95ed32e329}, ! Version UUID
  1366306720,                             ! Creation Timestamp
  1366306720,                             ! Version Timestamp
  {3012b49f-0716-47d2-9027-7b2811e53f98}; ! Name of Object 1

