
OS:Version,
  {8ead17a3-18ab-4344-b99e-dc1086e07804}, ! Handle
  0.9.3;                                  ! Version Identifier

OS:SizingPeriod:DesignDay,
  {559b56dc-afe8-44c9-9347-d44b158ac2aa}, ! Handle
  Great Falls Intl Arpt Ann Clg .4% Condns DP=>MDB, ! Name
  19.7,                                   ! Maximum Dry-Bulb Temperature {C}
  16,                                     ! Daily Dry-Bulb Temperature Range {deltaC}
  14.4,                                   ! Humidity Indicating Conditions at Maximum Dry-Bulb {BasedOnField A3}
  88606,                                  ! Barometric Pressure {Pa}
  4.9,                                    ! Wind Speed {m/s}
  240,                                    ! Wind Direction {deg}
  0,                                      ! Sky Clearness
  0,                                      ! Rain Indicator
  0,                                      ! Snow Indicator
  21,                                     ! Day of Month
  7,                                      ! Month
  SummerDesignDay,                        ! Day Type
  0,                                      ! Daylight Saving Time Indicator
  Dewpoint,                               ! Humidity Indicating Type
  ,                                       ! Humidity Indicating Day Schedule Name
  DefaultMultipliers,                     ! Dry-Bulb Temperature Range Modifier Type
  ,                                       ! Dry-Bulb Temperature Range Modifier Schedule Name
  ASHRAETau,                              ! Solar Model Indicator
  ,                                       ! Beam Solar Day Schedule Name
  ,                                       ! Diffuse Solar Day Schedule Name
  0.383,                                  ! ASHRAE Taub {dimensionless}
  2.176;                                  ! ASHRAE Taud {dimensionless}

OS:ComponentData,
  {ed08ff0a-2b3e-4ba7-82e7-254a39e78919}, ! Handle
  Component Data 1,                       ! Name
  {707321e2-c613-45bb-9624-9a4cad34784d}, ! UUID
  {4eadd080-be42-4a65-a76e-5fdf6a35f170}, ! Version UUID
  1366308781,                             ! Creation Timestamp
  1366308781,                             ! Version Timestamp
  {559b56dc-afe8-44c9-9347-d44b158ac2aa}; ! Name of Object 1

