
OS:Version,
  {6f35d3a6-b089-47bd-9f4a-d7f5616c1680}, ! Handle
  0.9.3;                                  ! Version Identifier

OS:SizingPeriod:DesignDay,
  {81690002-bf52-40ec-aebb-7250c2407cde}, ! Handle
  Knoxville Mcghee Tyson Ap Ann Htg Wind 99% Condns WS=>MCDB, ! Name
  12,                                     ! Maximum Dry-Bulb Temperature {C}
  0,                                      ! Daily Dry-Bulb Temperature Range {deltaC}
  12,                                     ! Humidity Indicating Conditions at Maximum Dry-Bulb {BasedOnField A3}
  97854,                                  ! Barometric Pressure {Pa}
  9.4,                                    ! Wind Speed {m/s}
  20,                                     ! Wind Direction {deg}
  0,                                      ! Sky Clearness
  0,                                      ! Rain Indicator
  0,                                      ! Snow Indicator
  21,                                     ! Day of Month
  1,                                      ! Month
  WinterDesignDay,                        ! Day Type
  0,                                      ! Daylight Saving Time Indicator
  Wetbulb,                                ! Humidity Indicating Type
  ,                                       ! Humidity Indicating Day Schedule Name
  DefaultMultipliers,                     ! Dry-Bulb Temperature Range Modifier Type
  ,                                       ! Dry-Bulb Temperature Range Modifier Schedule Name
  ASHRAEClearSky;                         ! Solar Model Indicator

