
OS:Version,
  {3a40cf77-fdb3-42cf-97b6-2d6c49fd4e9a}, ! Handle
  0.9.3;                                  ! Version Identifier

OS:SizingPeriod:DesignDay,
  {070208f1-79b2-4e8d-a3ed-8221efbc6bd3}, ! Handle
  Crossville Memorial Ap Ann Htg 99% Condns DB, ! Name
  -9.2,                                   ! Maximum Dry-Bulb Temperature {C}
  0,                                      ! Daily Dry-Bulb Temperature Range {deltaC}
  -9.2,                                   ! Humidity Indicating Conditions at Maximum Dry-Bulb {BasedOnField A3}
  94674,                                  ! Barometric Pressure {Pa}
  2.4,                                    ! Wind Speed {m/s}
  300,                                    ! Wind Direction {deg}
  0,                                      ! Sky Clearness
  0,                                      ! Rain Indicator
  0,                                      ! Snow Indicator
  21,                                     ! Day of Month
  1,                                      ! Month
  WinterDesignDay,                        ! Day Type
  0,                                      ! Daylight Saving Time Indicator
  Wetbulb,                                ! Humidity Indicating Type
  ,                                       ! Humidity Indicating Day Schedule Name
  DefaultMultipliers,                     ! Dry-Bulb Temperature Range Modifier Type
  ,                                       ! Dry-Bulb Temperature Range Modifier Schedule Name
  ASHRAEClearSky;                         ! Solar Model Indicator

OS:ComponentData,
  {c340655f-fc6c-41bd-9d57-7b62d2e8c13e}, ! Handle
  Component Data 1,                       ! Name
  {da84840f-842e-4dea-bcf4-61769751027f}, ! UUID
  {47a58d02-8cff-476c-a816-f705697a3857}, ! Version UUID
  1366310495,                             ! Creation Timestamp
  1366310495,                             ! Version Timestamp
  {070208f1-79b2-4e8d-a3ed-8221efbc6bd3}; ! Name of Object 1

