
OS:Version,
  {53aa439e-e941-448d-975f-88ad0e69a008}, ! Handle
  0.9.3;                                  ! Version Identifier

OS:SizingPeriod:DesignDay,
  {3bb0de23-26f1-4237-90af-5eebee2d683d}, ! Handle
  CHARLESTON Ann Clg 2% Condns WB=>MDB,   ! Name
  30.2,                                   ! Maximum Dry-Bulb Temperature {C}
  9,                                      ! Daily Dry-Bulb Temperature Range {deltaC}
  26,                                     ! Humidity Indicating Conditions at Maximum Dry-Bulb {BasedOnField A3}
  101181,                                 ! Barometric Pressure {Pa}
  4.4,                                    ! Wind Speed {m/s}
  230,                                    ! Wind Direction {deg}
  0,                                      ! Sky Clearness
  0,                                      ! Rain Indicator
  0,                                      ! Snow Indicator
  21,                                     ! Day of Month
  7,                                      ! Month
  SummerDesignDay,                        ! Day Type
  0,                                      ! Daylight Saving Time Indicator
  Wetbulb,                                ! Humidity Indicating Type
  ,                                       ! Humidity Indicating Day Schedule Name
  DefaultMultipliers,                     ! Dry-Bulb Temperature Range Modifier Type
  ,                                       ! Dry-Bulb Temperature Range Modifier Schedule Name
  ASHRAETau,                              ! Solar Model Indicator
  ,                                       ! Beam Solar Day Schedule Name
  ,                                       ! Diffuse Solar Day Schedule Name
  0.559,                                  ! ASHRAE Taub {dimensionless}
  1.811;                                  ! ASHRAE Taud {dimensionless}

OS:ComponentData,
  {d2895813-e81a-40bc-bba7-ad45fb065281}, ! Handle
  Component Data 1,                       ! Name
  {28917a95-6379-4fda-a590-dee9c4286e3a}, ! UUID
  {151cd2fd-1a33-4ed4-bf65-4a5a12b58bcd}, ! Version UUID
  1366310323,                             ! Creation Timestamp
  1366310323,                             ! Version Timestamp
  {3bb0de23-26f1-4237-90af-5eebee2d683d}; ! Name of Object 1

