
OS:Version,
  {27d7468d-ef9b-4ad3-bd49-87097c7135dd}, ! Handle
  0.9.3;                                  ! Version Identifier

OS:SizingPeriod:DesignDay,
  {f4dd1847-f3b0-425c-b819-6679294ad9c1}, ! Handle
  COLUMBIA Ann Clg 2% Condns Enth=>MDB,   ! Name
  30.7,                                   ! Maximum Dry-Bulb Temperature {C}
  11.1,                                   ! Daily Dry-Bulb Temperature Range {deltaC}
  75600,                                  ! Humidity Indicating Conditions at Maximum Dry-Bulb {BasedOnField A3}
  100499,                                 ! Barometric Pressure {Pa}
  3.9,                                    ! Wind Speed {m/s}
  240,                                    ! Wind Direction {deg}
  0,                                      ! Sky Clearness
  0,                                      ! Rain Indicator
  0,                                      ! Snow Indicator
  21,                                     ! Day of Month
  7,                                      ! Month
  SummerDesignDay,                        ! Day Type
  0,                                      ! Daylight Saving Time Indicator
  Enthalpy,                               ! Humidity Indicating Type
  ,                                       ! Humidity Indicating Day Schedule Name
  DefaultMultipliers,                     ! Dry-Bulb Temperature Range Modifier Type
  ,                                       ! Dry-Bulb Temperature Range Modifier Schedule Name
  ASHRAETau,                              ! Solar Model Indicator
  ,                                       ! Beam Solar Day Schedule Name
  ,                                       ! Diffuse Solar Day Schedule Name
  0.566,                                  ! ASHRAE Taub {dimensionless}
  1.764;                                  ! ASHRAE Taud {dimensionless}

OS:ComponentData,
  {9b5fe433-0471-4fd4-9fe6-a7afe434ac28}, ! Handle
  Component Data 1,                       ! Name
  {3ad476c2-b37e-4b9e-983b-c5914ff6e4e1}, ! UUID
  {30e18cd1-ca8b-4654-adc5-eb09cae84710}, ! Version UUID
  1366310338,                             ! Creation Timestamp
  1366310338,                             ! Version Timestamp
  {f4dd1847-f3b0-425c-b819-6679294ad9c1}; ! Name of Object 1

