
OS:Version,
  {30e17e7e-63af-4aa0-87b4-1c2e6732acdc}, ! Handle
  0.9.3;                                  ! Version Identifier

OS:SizingPeriod:DesignDay,
  {e6bff463-97b8-44ad-b56a-96d4a79d9167}, ! Handle
  BALTIMORE Ann Clg 1% Condns WB=>MDB,    ! Name
  30.3,                                   ! Maximum Dry-Bulb Temperature {C}
  10.4,                                   ! Daily Dry-Bulb Temperature Range {deltaC}
  24.9,                                   ! Humidity Indicating Conditions at Maximum Dry-Bulb {BasedOnField A3}
  100762,                                 ! Barometric Pressure {Pa}
  4.6,                                    ! Wind Speed {m/s}
  280,                                    ! Wind Direction {deg}
  0,                                      ! Sky Clearness
  0,                                      ! Rain Indicator
  0,                                      ! Snow Indicator
  21,                                     ! Day of Month
  7,                                      ! Month
  SummerDesignDay,                        ! Day Type
  0,                                      ! Daylight Saving Time Indicator
  Wetbulb,                                ! Humidity Indicating Type
  ,                                       ! Humidity Indicating Day Schedule Name
  DefaultMultipliers,                     ! Dry-Bulb Temperature Range Modifier Type
  ,                                       ! Dry-Bulb Temperature Range Modifier Schedule Name
  ASHRAETau,                              ! Solar Model Indicator
  ,                                       ! Beam Solar Day Schedule Name
  ,                                       ! Diffuse Solar Day Schedule Name
  0.552,                                  ! ASHRAE Taub {dimensionless}
  1.769;                                  ! ASHRAE Taud {dimensionless}

OS:ComponentData,
  {d3d6629d-e1dc-4909-b9ff-722c1c5a355c}, ! Handle
  Component Data 1,                       ! Name
  {bdd11cc6-25d9-4a20-8879-91c2bfd38a2d}, ! UUID
  {f4cf79e9-a2fb-4e0f-96df-1b54b890b830}, ! Version UUID
  1366307845,                             ! Creation Timestamp
  1366307845,                             ! Version Timestamp
  {e6bff463-97b8-44ad-b56a-96d4a79d9167}; ! Name of Object 1

