
OS:Version,
  {813e7d09-c728-4303-bcac-231763573d41}, ! Handle
  0.9.3;                                  ! Version Identifier

OS:SizingPeriod:DesignDay,
  {fa68529b-0eea-43bf-acd6-9828629d2c5a}, ! Handle
  Fargo Ann Clg .4% Condns WB=>MDB,       ! Name
  29.7,                                   ! Maximum Dry-Bulb Temperature {C}
  11.8,                                   ! Daily Dry-Bulb Temperature Range {deltaC}
  24.1,                                   ! Humidity Indicating Conditions at Maximum Dry-Bulb {BasedOnField A3}
  98076,                                  ! Barometric Pressure {Pa}
  6.5,                                    ! Wind Speed {m/s}
  170,                                    ! Wind Direction {deg}
  0,                                      ! Sky Clearness
  0,                                      ! Rain Indicator
  0,                                      ! Snow Indicator
  21,                                     ! Day of Month
  7,                                      ! Month
  SummerDesignDay,                        ! Day Type
  0,                                      ! Daylight Saving Time Indicator
  Wetbulb,                                ! Humidity Indicating Type
  ,                                       ! Humidity Indicating Day Schedule Name
  DefaultMultipliers,                     ! Dry-Bulb Temperature Range Modifier Type
  ,                                       ! Dry-Bulb Temperature Range Modifier Schedule Name
  ASHRAETau,                              ! Solar Model Indicator
  ,                                       ! Beam Solar Day Schedule Name
  ,                                       ! Diffuse Solar Day Schedule Name
  0.396,                                  ! ASHRAE Taub {dimensionless}
  2.253;                                  ! ASHRAE Taud {dimensionless}

OS:ComponentData,
  {a80500e8-011a-4f0d-a45a-c4f66be9dd9f}, ! Handle
  Component Data 1,                       ! Name
  {67c30876-f515-4019-936e-c6ce49d1bd61}, ! UUID
  {54cb057f-c9a7-423b-a6b7-0fe95cf64d3a}, ! Version UUID
  1366309025,                             ! Creation Timestamp
  1366309025,                             ! Version Timestamp
  {fa68529b-0eea-43bf-acd6-9828629d2c5a}; ! Name of Object 1

