
OS:Version,
  {493512ba-e6b8-4cda-92db-a6f8b16fa810}, ! Handle
  0.9.3;                                  ! Version Identifier

OS:SizingPeriod:DesignDay,
  {3a2a4cac-9eee-42f3-89a0-906ca566073b}, ! Handle
  Eveleth Muni  Awos Ann Clg .4% Condns WB=>MDB, ! Name
  27.8,                                   ! Maximum Dry-Bulb Temperature {C}
  13.1,                                   ! Daily Dry-Bulb Temperature Range {deltaC}
  22.9,                                   ! Humidity Indicating Conditions at Maximum Dry-Bulb {BasedOnField A3}
  96369,                                  ! Barometric Pressure {Pa}
  4.7,                                    ! Wind Speed {m/s}
  200,                                    ! Wind Direction {deg}
  0,                                      ! Sky Clearness
  0,                                      ! Rain Indicator
  0,                                      ! Snow Indicator
  21,                                     ! Day of Month
  7,                                      ! Month
  SummerDesignDay,                        ! Day Type
  0,                                      ! Daylight Saving Time Indicator
  Wetbulb,                                ! Humidity Indicating Type
  ,                                       ! Humidity Indicating Day Schedule Name
  DefaultMultipliers,                     ! Dry-Bulb Temperature Range Modifier Type
  ,                                       ! Dry-Bulb Temperature Range Modifier Schedule Name
  ASHRAETau,                              ! Solar Model Indicator
  ,                                       ! Beam Solar Day Schedule Name
  ,                                       ! Diffuse Solar Day Schedule Name
  0.403,                                  ! ASHRAE Taub {dimensionless}
  2.188;                                  ! ASHRAE Taud {dimensionless}

OS:ComponentData,
  {ab138465-1f11-4532-b176-2fc7b81189ea}, ! Handle
  Component Data 1,                       ! Name
  {d161e1d7-16c0-4e83-85e5-4c2131e0be1e}, ! UUID
  {d49a4a7f-68fd-450c-8bc6-0834ab7d2b3d}, ! Version UUID
  1366308220,                             ! Creation Timestamp
  1366308220,                             ! Version Timestamp
  {3a2a4cac-9eee-42f3-89a0-906ca566073b}; ! Name of Object 1

