
OS:Version,
  {29777acd-b394-4a65-afde-9c8f980a73e3}, ! Handle
  0.9.3;                                  ! Version Identifier

OS:SizingPeriod:DesignDay,
  {013cf0df-40bc-449f-9039-ce0706b29ff0}, ! Handle
  COLORADO_SPRINGS Ann Htg 99% Condns DB, ! Name
  -14.6,                                  ! Maximum Dry-Bulb Temperature {C}
  0,                                      ! Daily Dry-Bulb Temperature Range {deltaC}
  -14.6,                                  ! Humidity Indicating Conditions at Maximum Dry-Bulb {BasedOnField A3}
  80677,                                  ! Barometric Pressure {Pa}
  2.8,                                    ! Wind Speed {m/s}
  20,                                     ! Wind Direction {deg}
  0,                                      ! Sky Clearness
  0,                                      ! Rain Indicator
  0,                                      ! Snow Indicator
  21,                                     ! Day of Month
  12,                                     ! Month
  WinterDesignDay,                        ! Day Type
  0,                                      ! Daylight Saving Time Indicator
  Wetbulb,                                ! Humidity Indicating Type
  ,                                       ! Humidity Indicating Day Schedule Name
  DefaultMultipliers,                     ! Dry-Bulb Temperature Range Modifier Type
  ,                                       ! Dry-Bulb Temperature Range Modifier Schedule Name
  ASHRAEClearSky;                         ! Solar Model Indicator

OS:ComponentData,
  {15d7745a-6a2f-43a7-855f-df04a918f85c}, ! Handle
  Component Data 1,                       ! Name
  {b7eea091-1ee8-4656-96ea-f9e012eb734e}, ! UUID
  {245f49b3-add1-4b0a-b09b-a11ebf66095c}, ! Version UUID
  1366306665,                             ! Creation Timestamp
  1366306665,                             ! Version Timestamp
  {013cf0df-40bc-449f-9039-ce0706b29ff0}; ! Name of Object 1

