
OS:Version,
  {9260589c-6f36-46e5-bc09-3c88c0a4d16c}, ! Handle
  0.9.3;                                  ! Version Identifier

OS:SizingPeriod:DesignDay,
  {eec32034-9ef6-4823-9d02-aa51b237ad83}, ! Handle
  HONOLULU Ann Clg 2% Condns DP=>MDB,     ! Name
  26.8,                                   ! Maximum Dry-Bulb Temperature {C}
  7.1,                                    ! Daily Dry-Bulb Temperature Range {deltaC}
  22.7,                                   ! Humidity Indicating Conditions at Maximum Dry-Bulb {BasedOnField A3}
  101265,                                 ! Barometric Pressure {Pa}
  6.7,                                    ! Wind Speed {m/s}
  60,                                     ! Wind Direction {deg}
  0,                                      ! Sky Clearness
  0,                                      ! Rain Indicator
  0,                                      ! Snow Indicator
  21,                                     ! Day of Month
  8,                                      ! Month
  SummerDesignDay,                        ! Day Type
  0,                                      ! Daylight Saving Time Indicator
  Dewpoint,                               ! Humidity Indicating Type
  ,                                       ! Humidity Indicating Day Schedule Name
  DefaultMultipliers,                     ! Dry-Bulb Temperature Range Modifier Type
  ,                                       ! Dry-Bulb Temperature Range Modifier Schedule Name
  ASHRAETau,                              ! Solar Model Indicator
  ,                                       ! Beam Solar Day Schedule Name
  ,                                       ! Diffuse Solar Day Schedule Name
  0.382,                                  ! ASHRAE Taub {dimensionless}
  2.521;                                  ! ASHRAE Taud {dimensionless}

OS:ComponentData,
  {08e51c30-4b8e-453a-b472-3eec22908b96}, ! Handle
  Component Data 1,                       ! Name
  {d412f62c-91fd-4a63-9462-d26ab080b3d5}, ! UUID
  {3e55dcdf-562d-44d1-b613-91c8c827aa32}, ! Version UUID
  1366307087,                             ! Creation Timestamp
  1366307087,                             ! Version Timestamp
  {eec32034-9ef6-4823-9d02-aa51b237ad83}; ! Name of Object 1

