
OS:Version,
  {a70c610c-3bac-4513-89c1-aa18713341f6}, ! Handle
  0.9.3;                                  ! Version Identifier

OS:SizingPeriod:DesignDay,
  {d85bb6d3-2673-4ad2-bb1e-2df9757384ba}, ! Handle
  Cut Bank Ann Hum_n 99.6% Condns DP=>MCDB, ! Name
  -27.3,                                  ! Maximum Dry-Bulb Temperature {C}
  0,                                      ! Daily Dry-Bulb Temperature Range {deltaC}
  -32.7,                                  ! Humidity Indicating Conditions at Maximum Dry-Bulb {BasedOnField A3}
  87983,                                  ! Barometric Pressure {Pa}
  2.7,                                    ! Wind Speed {m/s}
  350,                                    ! Wind Direction {deg}
  0,                                      ! Sky Clearness
  0,                                      ! Rain Indicator
  0,                                      ! Snow Indicator
  21,                                     ! Day of Month
  1,                                      ! Month
  WinterDesignDay,                        ! Day Type
  0,                                      ! Daylight Saving Time Indicator
  Dewpoint,                               ! Humidity Indicating Type
  ,                                       ! Humidity Indicating Day Schedule Name
  DefaultMultipliers,                     ! Dry-Bulb Temperature Range Modifier Type
  ,                                       ! Dry-Bulb Temperature Range Modifier Schedule Name
  ASHRAEClearSky;                         ! Solar Model Indicator

OS:ComponentData,
  {a8f784f0-4014-4de8-ba49-f8023096d7ad}, ! Handle
  Component Data 1,                       ! Name
  {af685d78-58b1-4674-941b-30671d00cffc}, ! UUID
  {74307a20-fb08-40b2-b75a-6740dd2d48b7}, ! Version UUID
  1366308739,                             ! Creation Timestamp
  1366308739,                             ! Version Timestamp
  {d85bb6d3-2673-4ad2-bb1e-2df9757384ba}; ! Name of Object 1

