
OS:Version,
  {00d8a920-a3e6-4ab4-b9df-ed7cc8e1d915}, ! Handle
  0.9.3;                                  ! Version Identifier

OS:SizingPeriod:DesignDay,
  {023beadd-bf5c-4260-8253-3ee5af786f7f}, ! Handle
  BATON_ROUGE Ann Htg 99.6% Condns DB,    ! Name
  -2.5,                                   ! Maximum Dry-Bulb Temperature {C}
  0,                                      ! Daily Dry-Bulb Temperature Range {deltaC}
  -2.5,                                   ! Humidity Indicating Conditions at Maximum Dry-Bulb {BasedOnField A3}
  101049,                                 ! Barometric Pressure {Pa}
  2.2,                                    ! Wind Speed {m/s}
  0,                                      ! Wind Direction {deg}
  0,                                      ! Sky Clearness
  0,                                      ! Rain Indicator
  0,                                      ! Snow Indicator
  21,                                     ! Day of Month
  1,                                      ! Month
  WinterDesignDay,                        ! Day Type
  0,                                      ! Daylight Saving Time Indicator
  Wetbulb,                                ! Humidity Indicating Type
  ,                                       ! Humidity Indicating Day Schedule Name
  DefaultMultipliers,                     ! Dry-Bulb Temperature Range Modifier Type
  ,                                       ! Dry-Bulb Temperature Range Modifier Schedule Name
  ASHRAEClearSky;                         ! Solar Model Indicator

OS:ComponentData,
  {e04aee8b-f3da-42ea-ad01-8e95efbb2140}, ! Handle
  Component Data 1,                       ! Name
  {a3d4dafa-039a-48ad-a205-a41897a84db5}, ! UUID
  {3141f910-f7c6-404c-a177-99a59854ab82}, ! Version UUID
  1366307710,                             ! Creation Timestamp
  1366307710,                             ! Version Timestamp
  {023beadd-bf5c-4260-8253-3ee5af786f7f}; ! Name of Object 1

