
OS:Version,
  {c8b2799f-b325-4e9f-b8ab-34c272c5f1b2}, ! Handle
  0.9.3;                                  ! Version Identifier

OS:SizingPeriod:DesignDay,
  {6072333d-fac1-4bb0-85b1-ad324c532d10}, ! Handle
  Charleston Yeager Arpt Ann Clg 2% Condns WB=>MDB, ! Name
  28.2,                                   ! Maximum Dry-Bulb Temperature {C}
  10.7,                                   ! Daily Dry-Bulb Temperature Range {deltaC}
  23.5,                                   ! Humidity Indicating Conditions at Maximum Dry-Bulb {BasedOnField A3}
  97656,                                  ! Barometric Pressure {Pa}
  2.9,                                    ! Wind Speed {m/s}
  240,                                    ! Wind Direction {deg}
  0,                                      ! Sky Clearness
  0,                                      ! Rain Indicator
  0,                                      ! Snow Indicator
  21,                                     ! Day of Month
  7,                                      ! Month
  SummerDesignDay,                        ! Day Type
  0,                                      ! Daylight Saving Time Indicator
  Wetbulb,                                ! Humidity Indicating Type
  ,                                       ! Humidity Indicating Day Schedule Name
  DefaultMultipliers,                     ! Dry-Bulb Temperature Range Modifier Type
  ,                                       ! Dry-Bulb Temperature Range Modifier Schedule Name
  ASHRAETau,                              ! Solar Model Indicator
  ,                                       ! Beam Solar Day Schedule Name
  ,                                       ! Diffuse Solar Day Schedule Name
  0.513,                                  ! ASHRAE Taub {dimensionless}
  1.859;                                  ! ASHRAE Taud {dimensionless}

OS:ComponentData,
  {361d0dd4-363b-4cc9-825f-b8ae6a922812}, ! Handle
  Component Data 1,                       ! Name
  {b814f1c3-d2b0-462e-8457-9d01167a73b9}, ! UUID
  {f36930f8-53bd-4d9b-aa14-4862a3ea160c}, ! Version UUID
  1366311625,                             ! Creation Timestamp
  1366311625,                             ! Version Timestamp
  {6072333d-fac1-4bb0-85b1-ad324c532d10}; ! Name of Object 1

