
OS:Version,
  {0ca77d8b-bcdc-479f-aee2-02d2bbc3a102}, ! Handle
  0.9.3;                                  ! Version Identifier

OS:SizingPeriod:DesignDay,
  {08ed997a-b3b7-445f-8f1e-83340bd8bf14}, ! Handle
  CHARLESTON Ann Hum_n 99% Condns DP=>MCDB, ! Name
  -7.2,                                   ! Maximum Dry-Bulb Temperature {C}
  0,                                      ! Daily Dry-Bulb Temperature Range {deltaC}
  -15.5,                                  ! Humidity Indicating Conditions at Maximum Dry-Bulb {BasedOnField A3}
  97889,                                  ! Barometric Pressure {Pa}
  1.9,                                    ! Wind Speed {m/s}
  240,                                    ! Wind Direction {deg}
  0,                                      ! Sky Clearness
  0,                                      ! Rain Indicator
  0,                                      ! Snow Indicator
  21,                                     ! Day of Month
  1,                                      ! Month
  WinterDesignDay,                        ! Day Type
  0,                                      ! Daylight Saving Time Indicator
  Dewpoint,                               ! Humidity Indicating Type
  ,                                       ! Humidity Indicating Day Schedule Name
  DefaultMultipliers,                     ! Dry-Bulb Temperature Range Modifier Type
  ,                                       ! Dry-Bulb Temperature Range Modifier Schedule Name
  ASHRAEClearSky;                         ! Solar Model Indicator

OS:ComponentData,
  {369b76d9-05f9-4f63-9bc8-9bdcb62759e5}, ! Handle
  Component Data 1,                       ! Name
  {8cecd1cc-6301-4e74-8a76-36d2bb9aea79}, ! UUID
  {468ab282-a9f6-4c39-978d-68fb7615b7d5}, ! Version UUID
  1366311630,                             ! Creation Timestamp
  1366311630,                             ! Version Timestamp
  {08ed997a-b3b7-445f-8f1e-83340bd8bf14}; ! Name of Object 1

