
OS:Version,
  {c2c30803-a5ce-4093-856b-480dd4a638e2}, ! Handle
  0.9.3;                                  ! Version Identifier

OS:SizingPeriod:DesignDay,
  {e319c609-db09-4cdf-a4d7-e1844ceaffd0}, ! Handle
  Kotzebue Ralph Wein Memorial Ann Clg 1% Condns DB=>MWB, ! Name
  18,                                     ! Maximum Dry-Bulb Temperature {C}
  4.9,                                    ! Daily Dry-Bulb Temperature Range {deltaC}
  14.3,                                   ! Humidity Indicating Conditions at Maximum Dry-Bulb {BasedOnField A3}
  101289,                                 ! Barometric Pressure {Pa}
  4.7,                                    ! Wind Speed {m/s}
  300,                                    ! Wind Direction {deg}
  0,                                      ! Sky Clearness
  0,                                      ! Rain Indicator
  0,                                      ! Snow Indicator
  21,                                     ! Day of Month
  7,                                      ! Month
  SummerDesignDay,                        ! Day Type
  0,                                      ! Daylight Saving Time Indicator
  Wetbulb,                                ! Humidity Indicating Type
  ,                                       ! Humidity Indicating Day Schedule Name
  DefaultMultipliers,                     ! Dry-Bulb Temperature Range Modifier Type
  ,                                       ! Dry-Bulb Temperature Range Modifier Schedule Name
  ASHRAETau,                              ! Solar Model Indicator
  ,                                       ! Beam Solar Day Schedule Name
  ,                                       ! Diffuse Solar Day Schedule Name
  0.374,                                  ! ASHRAE Taub {dimensionless}
  2.244;                                  ! ASHRAE Taud {dimensionless}

OS:ComponentData,
  {605f0937-08ce-4316-9b7d-7e7b4b4774fb}, ! Handle
  Component Data 1,                       ! Name
  {040652fe-d8de-4167-9be9-fe4e3073e6e9}, ! UUID
  {931601e8-9774-442e-885e-84e5910ec6e9}, ! Version UUID
  1366305387,                             ! Creation Timestamp
  1366305387,                             ! Version Timestamp
  {e319c609-db09-4cdf-a4d7-e1844ceaffd0}; ! Name of Object 1

