
OS:Version,
  {aad89b89-ae86-4dc8-aec7-4e0e1ca29114}, ! Handle
  0.9.3;                                  ! Version Identifier

OS:SizingPeriod:DesignDay,
  {cf49cd24-3760-49f7-b241-fa681ccd373c}, ! Handle
  Lake Charles Ann Htg 99.6% Condns DB,   ! Name
  -1.3,                                   ! Maximum Dry-Bulb Temperature {C}
  0,                                      ! Daily Dry-Bulb Temperature Range {deltaC}
  -1.3,                                   ! Humidity Indicating Conditions at Maximum Dry-Bulb {BasedOnField A3}
  101205,                                 ! Barometric Pressure {Pa}
  3.8,                                    ! Wind Speed {m/s}
  20,                                     ! Wind Direction {deg}
  0,                                      ! Sky Clearness
  0,                                      ! Rain Indicator
  0,                                      ! Snow Indicator
  21,                                     ! Day of Month
  1,                                      ! Month
  WinterDesignDay,                        ! Day Type
  0,                                      ! Daylight Saving Time Indicator
  Wetbulb,                                ! Humidity Indicating Type
  ,                                       ! Humidity Indicating Day Schedule Name
  DefaultMultipliers,                     ! Dry-Bulb Temperature Range Modifier Type
  ,                                       ! Dry-Bulb Temperature Range Modifier Schedule Name
  ASHRAEClearSky;                         ! Solar Model Indicator

OS:ComponentData,
  {1fdb1797-8e35-440d-8c6b-9c9358a42d6b}, ! Handle
  Component Data 1,                       ! Name
  {8974da5b-ee0c-4a52-983d-cf517f0f8d64}, ! UUID
  {0c4f1753-e1e9-4648-99b9-f10b13dd3f1c}, ! Version UUID
  1366307727,                             ! Creation Timestamp
  1366307727,                             ! Version Timestamp
  {cf49cd24-3760-49f7-b241-fa681ccd373c}; ! Name of Object 1

