
OS:Version,
  {2ed088d3-0deb-4a0a-b0e1-a58ea3df5047}, ! Handle
  0.9.3;                                  ! Version Identifier

OS:SizingPeriod:DesignDay,
  {788a5bd1-92f0-4f62-847b-e85f51ddbac7}, ! Handle
  CHARLESTON Ann Clg 1% Condns DB=>MWB,   ! Name
  31.6,                                   ! Maximum Dry-Bulb Temperature {C}
  10.7,                                   ! Daily Dry-Bulb Temperature Range {deltaC}
  22.8,                                   ! Humidity Indicating Conditions at Maximum Dry-Bulb {BasedOnField A3}
  97889,                                  ! Barometric Pressure {Pa}
  2.9,                                    ! Wind Speed {m/s}
  240,                                    ! Wind Direction {deg}
  0,                                      ! Sky Clearness
  0,                                      ! Rain Indicator
  0,                                      ! Snow Indicator
  21,                                     ! Day of Month
  7,                                      ! Month
  SummerDesignDay,                        ! Day Type
  0,                                      ! Daylight Saving Time Indicator
  Wetbulb,                                ! Humidity Indicating Type
  ,                                       ! Humidity Indicating Day Schedule Name
  DefaultMultipliers,                     ! Dry-Bulb Temperature Range Modifier Type
  ,                                       ! Dry-Bulb Temperature Range Modifier Schedule Name
  ASHRAETau,                              ! Solar Model Indicator
  ,                                       ! Beam Solar Day Schedule Name
  ,                                       ! Diffuse Solar Day Schedule Name
  0.513,                                  ! ASHRAE Taub {dimensionless}
  1.859;                                  ! ASHRAE Taud {dimensionless}

OS:ComponentData,
  {9b2036d7-25e8-48b8-8948-061317486951}, ! Handle
  Component Data 1,                       ! Name
  {6050b006-577d-4560-8062-a636734a5e52}, ! UUID
  {852c1edd-d145-4565-8e01-3bb8c7eb2e33}, ! Version UUID
  1366311630,                             ! Creation Timestamp
  1366311630,                             ! Version Timestamp
  {788a5bd1-92f0-4f62-847b-e85f51ddbac7}; ! Name of Object 1

