
OS:Version,
  {614715eb-3893-4b59-870b-ac56e084ff82}, ! Handle
  0.9.3;                                  ! Version Identifier

OS:SizingPeriod:DesignDay,
  {ae24f284-97bf-4e1e-8e01-1ec13d435693}, ! Handle
  Albany Ann Clg .4% Condns Enth=>MDB,    ! Name
  29.6,                                   ! Maximum Dry-Bulb Temperature {C}
  11.1,                                   ! Daily Dry-Bulb Temperature Range {deltaC}
  73500,                                  ! Humidity Indicating Conditions at Maximum Dry-Bulb {BasedOnField A3}
  100260,                                 ! Barometric Pressure {Pa}
  4.4,                                    ! Wind Speed {m/s}
  180,                                    ! Wind Direction {deg}
  0,                                      ! Sky Clearness
  0,                                      ! Rain Indicator
  0,                                      ! Snow Indicator
  21,                                     ! Day of Month
  7,                                      ! Month
  SummerDesignDay,                        ! Day Type
  0,                                      ! Daylight Saving Time Indicator
  Enthalpy,                               ! Humidity Indicating Type
  ,                                       ! Humidity Indicating Day Schedule Name
  DefaultMultipliers,                     ! Dry-Bulb Temperature Range Modifier Type
  ,                                       ! Dry-Bulb Temperature Range Modifier Schedule Name
  ASHRAETau,                              ! Solar Model Indicator
  ,                                       ! Beam Solar Day Schedule Name
  ,                                       ! Diffuse Solar Day Schedule Name
  0.49,                                   ! ASHRAE Taub {dimensionless}
  1.923;                                  ! ASHRAE Taud {dimensionless}

OS:ComponentData,
  {1d7eecb4-bea7-47c5-9b73-be8c3da6dce2}, ! Handle
  Component Data 1,                       ! Name
  {1f7e7e5a-ad2c-4b31-9dbd-0718f44b36e5}, ! UUID
  {a4869817-7c64-41dd-9877-63da6d5573c1}, ! Version UUID
  1366309581,                             ! Creation Timestamp
  1366309581,                             ! Version Timestamp
  {ae24f284-97bf-4e1e-8e01-1ec13d435693}; ! Name of Object 1

