
OS:Version,
  {595cb310-5156-4585-bd7a-90893fe3d107}, ! Handle
  0.9.3;                                  ! Version Identifier

OS:SizingPeriod:DesignDay,
  {2de26571-0540-4b9e-b582-8585bcb7e0c6}, ! Handle
  ERIE Ann Clg .4% Condns DB=>MWB,        ! Name
  30.2,                                   ! Maximum Dry-Bulb Temperature {C}
  8.3,                                    ! Daily Dry-Bulb Temperature Range {deltaC}
  22.7,                                   ! Humidity Indicating Conditions at Maximum Dry-Bulb {BasedOnField A3}
  98651,                                  ! Barometric Pressure {Pa}
  5,                                      ! Wind Speed {m/s}
  260,                                    ! Wind Direction {deg}
  0,                                      ! Sky Clearness
  0,                                      ! Rain Indicator
  0,                                      ! Snow Indicator
  21,                                     ! Day of Month
  7,                                      ! Month
  SummerDesignDay,                        ! Day Type
  0,                                      ! Daylight Saving Time Indicator
  Wetbulb,                                ! Humidity Indicating Type
  ,                                       ! Humidity Indicating Day Schedule Name
  DefaultMultipliers,                     ! Dry-Bulb Temperature Range Modifier Type
  ,                                       ! Dry-Bulb Temperature Range Modifier Schedule Name
  ASHRAETau,                              ! Solar Model Indicator
  ,                                       ! Beam Solar Day Schedule Name
  ,                                       ! Diffuse Solar Day Schedule Name
  0.455,                                  ! ASHRAE Taub {dimensionless}
  2.041;                                  ! ASHRAE Taud {dimensionless}

OS:ComponentData,
  {8d95659d-9f42-46b7-aa20-a0ed09c27946}, ! Handle
  Component Data 1,                       ! Name
  {e952882e-c1d9-486d-a6b8-91c44b0a4b0e}, ! UUID
  {1b4eba1a-302f-456f-90a3-60bbab0f8545}, ! Version UUID
  1366310164,                             ! Creation Timestamp
  1366310164,                             ! Version Timestamp
  {2de26571-0540-4b9e-b582-8585bcb7e0c6}; ! Name of Object 1

