
OS:Version,
  {508ad365-5f6c-4028-8a6b-67501961319d}, ! Handle
  0.9.3;                                  ! Version Identifier

OS:SizingPeriod:DesignDay,
  {6441ccbf-0d56-480f-b3fc-ee1eeb28d98b}, ! Handle
  Kahului Airport Ann Clg 2% Condns Enth=>MDB, ! Name
  29,                                     ! Maximum Dry-Bulb Temperature {C}
  8.3,                                    ! Daily Dry-Bulb Temperature Range {deltaC}
  72400,                                  ! Humidity Indicating Conditions at Maximum Dry-Bulb {BasedOnField A3}
  101133,                                 ! Barometric Pressure {Pa}
  7.9,                                    ! Wind Speed {m/s}
  60,                                     ! Wind Direction {deg}
  0,                                      ! Sky Clearness
  0,                                      ! Rain Indicator
  0,                                      ! Snow Indicator
  21,                                     ! Day of Month
  8,                                      ! Month
  SummerDesignDay,                        ! Day Type
  0,                                      ! Daylight Saving Time Indicator
  Enthalpy,                               ! Humidity Indicating Type
  ,                                       ! Humidity Indicating Day Schedule Name
  DefaultMultipliers,                     ! Dry-Bulb Temperature Range Modifier Type
  ,                                       ! Dry-Bulb Temperature Range Modifier Schedule Name
  ASHRAETau,                              ! Solar Model Indicator
  ,                                       ! Beam Solar Day Schedule Name
  ,                                       ! Diffuse Solar Day Schedule Name
  0.383,                                  ! ASHRAE Taub {dimensionless}
  2.519;                                  ! ASHRAE Taud {dimensionless}

OS:ComponentData,
  {8d19cfc2-c9ad-4feb-b84d-bc163f552b66}, ! Handle
  Component Data 1,                       ! Name
  {9100ea39-4ab7-4747-8652-e3f053682aaa}, ! UUID
  {06777e3d-e10f-4c39-9276-135945f22853}, ! Version UUID
  1366307101,                             ! Creation Timestamp
  1366307101,                             ! Version Timestamp
  {6441ccbf-0d56-480f-b3fc-ee1eeb28d98b}; ! Name of Object 1

