
OS:Version,
  {a86aff84-abdd-4032-9be8-9d11f9695576}, ! Handle
  0.9.3;                                  ! Version Identifier

OS:SizingPeriod:DesignDay,
  {ceaecc46-13e8-4a3d-a6db-352298e2274e}, ! Handle
  Bellingham Intl Ap Ann Clg .4% Condns DP=>MDB, ! Name
  21.8,                                   ! Maximum Dry-Bulb Temperature {C}
  9.2,                                    ! Daily Dry-Bulb Temperature Range {deltaC}
  16.5,                                   ! Humidity Indicating Conditions at Maximum Dry-Bulb {BasedOnField A3}
  100786,                                 ! Barometric Pressure {Pa}
  3.6,                                    ! Wind Speed {m/s}
  290,                                    ! Wind Direction {deg}
  0,                                      ! Sky Clearness
  0,                                      ! Rain Indicator
  0,                                      ! Snow Indicator
  21,                                     ! Day of Month
  8,                                      ! Month
  SummerDesignDay,                        ! Day Type
  0,                                      ! Daylight Saving Time Indicator
  Dewpoint,                               ! Humidity Indicating Type
  ,                                       ! Humidity Indicating Day Schedule Name
  DefaultMultipliers,                     ! Dry-Bulb Temperature Range Modifier Type
  ,                                       ! Dry-Bulb Temperature Range Modifier Schedule Name
  ASHRAETau,                              ! Solar Model Indicator
  ,                                       ! Beam Solar Day Schedule Name
  ,                                       ! Diffuse Solar Day Schedule Name
  0.361,                                  ! ASHRAE Taub {dimensionless}
  2.493;                                  ! ASHRAE Taud {dimensionless}

OS:ComponentData,
  {cc627f27-3171-4446-af37-d26de588e53e}, ! Handle
  Component Data 1,                       ! Name
  {4b26c4aa-97f0-416f-a412-17b53223b1e9}, ! UUID
  {4ea3d4ec-0ea1-416f-afaa-9580045b8761}, ! Version UUID
  1366311268,                             ! Creation Timestamp
  1366311268,                             ! Version Timestamp
  {ceaecc46-13e8-4a3d-a6db-352298e2274e}; ! Name of Object 1

