
OS:Version,
  {dd339884-52ab-4e30-bb2f-54755db7f437}, ! Handle
  0.9.3;                                  ! Version Identifier

OS:SizingPeriod:DesignDay,
  {2b91c9d2-c1cc-434f-9139-01abd985126c}, ! Handle
  Baltimore Blt Washngtn IntL Ann Hum_n 99.6% Condns DP=>MCDB, ! Name
  -7.9,                                   ! Maximum Dry-Bulb Temperature {C}
  0,                                      ! Daily Dry-Bulb Temperature Range {deltaC}
  -19.6,                                  ! Humidity Indicating Conditions at Maximum Dry-Bulb {BasedOnField A3}
  100786,                                 ! Barometric Pressure {Pa}
  3.9,                                    ! Wind Speed {m/s}
  290,                                    ! Wind Direction {deg}
  0,                                      ! Sky Clearness
  0,                                      ! Rain Indicator
  0,                                      ! Snow Indicator
  21,                                     ! Day of Month
  1,                                      ! Month
  WinterDesignDay,                        ! Day Type
  0,                                      ! Daylight Saving Time Indicator
  Dewpoint,                               ! Humidity Indicating Type
  ,                                       ! Humidity Indicating Day Schedule Name
  DefaultMultipliers,                     ! Dry-Bulb Temperature Range Modifier Type
  ,                                       ! Dry-Bulb Temperature Range Modifier Schedule Name
  ASHRAEClearSky;                         ! Solar Model Indicator

OS:ComponentData,
  {7d83c9e3-24c5-4f72-b61c-a6b1d95d2af4}, ! Handle
  Component Data 1,                       ! Name
  {7ce7a151-042d-465f-9c4f-3aecdd35da9f}, ! UUID
  {4127c6a1-5e44-4c79-bdee-574dd1b51225}, ! Version UUID
  1366307841,                             ! Creation Timestamp
  1366307841,                             ! Version Timestamp
  {2b91c9d2-c1cc-434f-9139-01abd985126c}; ! Name of Object 1

