
OS:Version,
  {ea7418df-e169-46ee-be8d-5cabe38fd757}, ! Handle
  0.9.3;                                  ! Version Identifier

OS:SizingPeriod:DesignDay,
  {e0209ca0-536f-4f00-b969-6e1c405c16c6}, ! Handle
  HILO Ann Clg 2% Condns Enth=>MDB,       ! Name
  27.3,                                   ! Maximum Dry-Bulb Temperature {C}
  7,                                      ! Daily Dry-Bulb Temperature Range {deltaC}
  71900,                                  ! Humidity Indicating Conditions at Maximum Dry-Bulb {BasedOnField A3}
  101193,                                 ! Barometric Pressure {Pa}
  4.8,                                    ! Wind Speed {m/s}
  90,                                     ! Wind Direction {deg}
  0,                                      ! Sky Clearness
  0,                                      ! Rain Indicator
  0,                                      ! Snow Indicator
  21,                                     ! Day of Month
  8,                                      ! Month
  SummerDesignDay,                        ! Day Type
  0,                                      ! Daylight Saving Time Indicator
  Enthalpy,                               ! Humidity Indicating Type
  ,                                       ! Humidity Indicating Day Schedule Name
  DefaultMultipliers,                     ! Dry-Bulb Temperature Range Modifier Type
  ,                                       ! Dry-Bulb Temperature Range Modifier Schedule Name
  ASHRAETau,                              ! Solar Model Indicator
  ,                                       ! Beam Solar Day Schedule Name
  ,                                       ! Diffuse Solar Day Schedule Name
  0.411,                                  ! ASHRAE Taub {dimensionless}
  2.427;                                  ! ASHRAE Taud {dimensionless}

OS:ComponentData,
  {1982f16d-5328-48e2-8e65-c7fd736a1c72}, ! Handle
  Component Data 1,                       ! Name
  {684ae9fc-41d2-47ae-8102-7f104a930303}, ! UUID
  {4b835754-843d-4629-b85c-f283418ed5ce}, ! Version UUID
  1366307078,                             ! Creation Timestamp
  1366307078,                             ! Version Timestamp
  {e0209ca0-536f-4f00-b969-6e1c405c16c6}; ! Name of Object 1

