
OS:Version,
  {e0fe4a26-e755-4d98-9089-1dc2c6039fe2}, ! Handle
  0.9.3;                                  ! Version Identifier

OS:SizingPeriod:DesignDay,
  {a7e52fe6-6af9-48ff-810f-343d2d59b8f3}, ! Handle
  Gillette Gillette C Ann Htg 99% Condns DB, ! Name
  -20.2,                                  ! Maximum Dry-Bulb Temperature {C}
  0,                                      ! Daily Dry-Bulb Temperature Range {deltaC}
  -20.2,                                  ! Humidity Indicating Conditions at Maximum Dry-Bulb {BasedOnField A3}
  87395,                                  ! Barometric Pressure {Pa}
  2.7,                                    ! Wind Speed {m/s}
  350,                                    ! Wind Direction {deg}
  0,                                      ! Sky Clearness
  0,                                      ! Rain Indicator
  0,                                      ! Snow Indicator
  21,                                     ! Day of Month
  12,                                     ! Month
  WinterDesignDay,                        ! Day Type
  0,                                      ! Daylight Saving Time Indicator
  Wetbulb,                                ! Humidity Indicating Type
  ,                                       ! Humidity Indicating Day Schedule Name
  DefaultMultipliers,                     ! Dry-Bulb Temperature Range Modifier Type
  ,                                       ! Dry-Bulb Temperature Range Modifier Schedule Name
  ASHRAEClearSky;                         ! Solar Model Indicator

OS:ComponentData,
  {0c8e49c0-c46f-4e44-acae-3222fafc3db5}, ! Handle
  Component Data 1,                       ! Name
  {73c5358c-ce1c-4325-8db6-b948520b80a9}, ! UUID
  {2f90d761-c6c9-4d5d-b94b-bcaabc0dd989}, ! Version UUID
  1366311726,                             ! Creation Timestamp
  1366311726,                             ! Version Timestamp
  {a7e52fe6-6af9-48ff-810f-343d2d59b8f3}; ! Name of Object 1

