
OS:Version,
  {9a115e42-e9d1-4ecd-8629-f32888b4a6a8}, ! Handle
  0.9.3;                                  ! Version Identifier

OS:SizingPeriod:DesignDay,
  {d009d44e-0ca9-4f8e-b2e2-b051c0d9bf64}, ! Handle
  King Salmon Arpt Ann Hum_n 99% Condns DP=>MCDB, ! Name
  -27,                                    ! Maximum Dry-Bulb Temperature {C}
  0,                                      ! Daily Dry-Bulb Temperature Range {deltaC}
  -30.7,                                  ! Humidity Indicating Conditions at Maximum Dry-Bulb {BasedOnField A3}
  101145,                                 ! Barometric Pressure {Pa}
  2.4,                                    ! Wind Speed {m/s}
  10,                                     ! Wind Direction {deg}
  0,                                      ! Sky Clearness
  0,                                      ! Rain Indicator
  0,                                      ! Snow Indicator
  21,                                     ! Day of Month
  1,                                      ! Month
  WinterDesignDay,                        ! Day Type
  0,                                      ! Daylight Saving Time Indicator
  Dewpoint,                               ! Humidity Indicating Type
  ,                                       ! Humidity Indicating Day Schedule Name
  DefaultMultipliers,                     ! Dry-Bulb Temperature Range Modifier Type
  ,                                       ! Dry-Bulb Temperature Range Modifier Schedule Name
  ASHRAEClearSky;                         ! Solar Model Indicator

OS:ComponentData,
  {3933b001-e9e1-4bf4-bc71-16195f7ddd5d}, ! Handle
  Component Data 1,                       ! Name
  {c040c18a-7eb2-4058-a68f-23b18c940103}, ! UUID
  {2545f601-0543-46f4-bd1a-f78346a7665a}, ! Version UUID
  1366305366,                             ! Creation Timestamp
  1366305366,                             ! Version Timestamp
  {d009d44e-0ca9-4f8e-b2e2-b051c0d9bf64}; ! Name of Object 1

