
OS:Version,
  {eb8c1575-808a-4cce-b2ac-a2250f470762}, ! Handle
  0.9.3;                                  ! Version Identifier

OS:SizingPeriod:DesignDay,
  {92d3a571-6178-46eb-8a04-77517225e7f4}, ! Handle
  Akron Akron Canton Reg Ap Ann Clg .4% Condns DB=>MWB, ! Name
  31.5,                                   ! Maximum Dry-Bulb Temperature {C}
  10.4,                                   ! Daily Dry-Bulb Temperature Range {deltaC}
  22.7,                                   ! Humidity Indicating Conditions at Maximum Dry-Bulb {BasedOnField A3}
  96982,                                  ! Barometric Pressure {Pa}
  4.6,                                    ! Wind Speed {m/s}
  230,                                    ! Wind Direction {deg}
  0,                                      ! Sky Clearness
  0,                                      ! Rain Indicator
  0,                                      ! Snow Indicator
  21,                                     ! Day of Month
  7,                                      ! Month
  SummerDesignDay,                        ! Day Type
  0,                                      ! Daylight Saving Time Indicator
  Wetbulb,                                ! Humidity Indicating Type
  ,                                       ! Humidity Indicating Day Schedule Name
  DefaultMultipliers,                     ! Dry-Bulb Temperature Range Modifier Type
  ,                                       ! Dry-Bulb Temperature Range Modifier Schedule Name
  ASHRAETau,                              ! Solar Model Indicator
  ,                                       ! Beam Solar Day Schedule Name
  ,                                       ! Diffuse Solar Day Schedule Name
  0.464,                                  ! ASHRAE Taub {dimensionless}
  1.994;                                  ! ASHRAE Taud {dimensionless}

OS:ComponentData,
  {c0dd28fc-d987-4c17-9302-020356c64a31}, ! Handle
  Component Data 1,                       ! Name
  {f13ea759-ce10-4fd4-ba61-84e18b56a166}, ! UUID
  {e6fedb6c-7b01-462a-8523-d011612a1e31}, ! Version UUID
  1366309770,                             ! Creation Timestamp
  1366309770,                             ! Version Timestamp
  {92d3a571-6178-46eb-8a04-77517225e7f4}; ! Name of Object 1

