
OS:Version,
  {fd9affb6-193b-43d4-ba48-a63c202428bd}, ! Handle
  0.9.3;                                  ! Version Identifier

OS:SizingPeriod:DesignDay,
  {5d2b0baf-23dc-459a-b229-9e8747adda47}, ! Handle
  Liberal Muni Ann Htg Wind 99.6% Condns WS=>MCDB, ! Name
  6,                                      ! Maximum Dry-Bulb Temperature {C}
  0,                                      ! Daily Dry-Bulb Temperature Range {deltaC}
  6,                                      ! Humidity Indicating Conditions at Maximum Dry-Bulb {BasedOnField A3}
  90959,                                  ! Barometric Pressure {Pa}
  15.2,                                   ! Wind Speed {m/s}
  10,                                     ! Wind Direction {deg}
  0,                                      ! Sky Clearness
  0,                                      ! Rain Indicator
  0,                                      ! Snow Indicator
  21,                                     ! Day of Month
  1,                                      ! Month
  WinterDesignDay,                        ! Day Type
  0,                                      ! Daylight Saving Time Indicator
  Wetbulb,                                ! Humidity Indicating Type
  ,                                       ! Humidity Indicating Day Schedule Name
  DefaultMultipliers,                     ! Dry-Bulb Temperature Range Modifier Type
  ,                                       ! Dry-Bulb Temperature Range Modifier Schedule Name
  ASHRAEClearSky;                         ! Solar Model Indicator

OS:ComponentData,
  {6a938393-d54e-409f-8bb2-1ba8bfe575f2}, ! Handle
  Component Data 1,                       ! Name
  {eb0065fa-eca8-4e7f-8294-cc8a1e4d14f1}, ! UUID
  {c0a57324-21ce-4a7a-a4c0-02e9a68633ab}, ! Version UUID
  1366307554,                             ! Creation Timestamp
  1366307554,                             ! Version Timestamp
  {5d2b0baf-23dc-459a-b229-9e8747adda47}; ! Name of Object 1

