
OS:Version,
  {4a839c5b-2d5d-4dae-946c-1d67be4484e2}, ! Handle
  0.9.3;                                  ! Version Identifier

OS:SizingPeriod:DesignDay,
  {05e1c355-e7d4-495b-b540-15c5e58f7d96}, ! Handle
  Chula Vista Brown Field Naas Ann Clg 2% Condns WB=>MDB, ! Name
  25.2,                                   ! Maximum Dry-Bulb Temperature {C}
  8.9,                                    ! Daily Dry-Bulb Temperature Range {deltaC}
  20.3,                                   ! Humidity Indicating Conditions at Maximum Dry-Bulb {BasedOnField A3}
  99429,                                  ! Barometric Pressure {Pa}
  4.1,                                    ! Wind Speed {m/s}
  280,                                    ! Wind Direction {deg}
  0,                                      ! Sky Clearness
  0,                                      ! Rain Indicator
  0,                                      ! Snow Indicator
  21,                                     ! Day of Month
  8,                                      ! Month
  SummerDesignDay,                        ! Day Type
  0,                                      ! Daylight Saving Time Indicator
  Wetbulb,                                ! Humidity Indicating Type
  ,                                       ! Humidity Indicating Day Schedule Name
  DefaultMultipliers,                     ! Dry-Bulb Temperature Range Modifier Type
  ,                                       ! Dry-Bulb Temperature Range Modifier Schedule Name
  ASHRAETau,                              ! Solar Model Indicator
  ,                                       ! Beam Solar Day Schedule Name
  ,                                       ! Diffuse Solar Day Schedule Name
  0.412,                                  ! ASHRAE Taub {dimensionless}
  2.276;                                  ! ASHRAE Taud {dimensionless}

OS:ComponentData,
  {94f7d68c-0419-4f6d-8658-f3ec0fee0e6d}, ! Handle
  Component Data 1,                       ! Name
  {28a4d484-b959-430f-9879-e15ec3cd01f3}, ! UUID
  {c71ace56-aff7-42d0-ba2b-c7100d084317}, ! Version UUID
  1366306414,                             ! Creation Timestamp
  1366306414,                             ! Version Timestamp
  {05e1c355-e7d4-495b-b540-15c5e58f7d96}; ! Name of Object 1

