
OS:Version,
  {f7b4d1f3-325a-491f-be73-182ea54f0a0c}, ! Handle
  0.9.3;                                  ! Version Identifier

OS:SizingPeriod:DesignDay,
  {4e122670-5533-4920-8388-2ba357989624}, ! Handle
  LOUISVILLE Ann Clg 2% Condns WB=>MDB,   ! Name
  29.8,                                   ! Maximum Dry-Bulb Temperature {C}
  9.7,                                    ! Daily Dry-Bulb Temperature Range {deltaC}
  24.6,                                   ! Humidity Indicating Conditions at Maximum Dry-Bulb {BasedOnField A3}
  99548,                                  ! Barometric Pressure {Pa}
  4.2,                                    ! Wind Speed {m/s}
  240,                                    ! Wind Direction {deg}
  0,                                      ! Sky Clearness
  0,                                      ! Rain Indicator
  0,                                      ! Snow Indicator
  21,                                     ! Day of Month
  7,                                      ! Month
  SummerDesignDay,                        ! Day Type
  0,                                      ! Daylight Saving Time Indicator
  Wetbulb,                                ! Humidity Indicating Type
  ,                                       ! Humidity Indicating Day Schedule Name
  DefaultMultipliers,                     ! Dry-Bulb Temperature Range Modifier Type
  ,                                       ! Dry-Bulb Temperature Range Modifier Schedule Name
  ASHRAETau,                              ! Solar Model Indicator
  ,                                       ! Beam Solar Day Schedule Name
  ,                                       ! Diffuse Solar Day Schedule Name
  0.51,                                   ! ASHRAE Taub {dimensionless}
  1.872;                                  ! ASHRAE Taud {dimensionless}

OS:ComponentData,
  {b2dc0a74-d14d-48f5-9f8f-46d99bc6f035}, ! Handle
  Component Data 1,                       ! Name
  {1a32b403-fceb-4166-bad1-be172b4f0f21}, ! UUID
  {d690deff-443c-4d37-9bb0-03e4a8e804b2}, ! Version UUID
  1366307676,                             ! Creation Timestamp
  1366307676,                             ! Version Timestamp
  {4e122670-5533-4920-8388-2ba357989624}; ! Name of Object 1

