
OS:Version,
  {6e02c18f-ba1e-4a2d-8c0e-73fc8063c947}, ! Handle
  0.9.3;                                  ! Version Identifier

OS:SizingPeriod:DesignDay,
  {36348f5f-210e-4d1f-aac3-ca996da91e9a}, ! Handle
  Hibbing Chisholm Hibbing Ap Ann Clg .4% Condns Enth=>MDB, ! Name
  28,                                     ! Maximum Dry-Bulb Temperature {C}
  13,                                     ! Daily Dry-Bulb Temperature Range {deltaC}
  69500,                                  ! Humidity Indicating Conditions at Maximum Dry-Bulb {BasedOnField A3}
  96484,                                  ! Barometric Pressure {Pa}
  4.9,                                    ! Wind Speed {m/s}
  200,                                    ! Wind Direction {deg}
  0,                                      ! Sky Clearness
  0,                                      ! Rain Indicator
  0,                                      ! Snow Indicator
  21,                                     ! Day of Month
  7,                                      ! Month
  SummerDesignDay,                        ! Day Type
  0,                                      ! Daylight Saving Time Indicator
  Enthalpy,                               ! Humidity Indicating Type
  ,                                       ! Humidity Indicating Day Schedule Name
  DefaultMultipliers,                     ! Dry-Bulb Temperature Range Modifier Type
  ,                                       ! Dry-Bulb Temperature Range Modifier Schedule Name
  ASHRAETau,                              ! Solar Model Indicator
  ,                                       ! Beam Solar Day Schedule Name
  ,                                       ! Diffuse Solar Day Schedule Name
  0.401,                                  ! ASHRAE Taub {dimensionless}
  2.2;                                    ! ASHRAE Taud {dimensionless}

OS:ComponentData,
  {fe2e29e0-fe84-4484-b61e-b6639ce91e77}, ! Handle
  Component Data 1,                       ! Name
  {2ad552da-c5f8-488c-9642-afd2caba035c}, ! UUID
  {ef1319ad-df1e-41ea-9f85-97c4619c62ab}, ! Version UUID
  1366308256,                             ! Creation Timestamp
  1366308256,                             ! Version Timestamp
  {36348f5f-210e-4d1f-aac3-ca996da91e9a}; ! Name of Object 1

