
OS:Version,
  {4592b827-1167-41bf-aba3-97ace78d9944}, ! Handle
  0.9.3;                                  ! Version Identifier

OS:SizingPeriod:DesignDay,
  {debf609c-5a28-42f4-ac81-c1adb19cab82}, ! Handle
  Arcata Airport Ann Hum_n 99.6% Condns DP=>MCDB, ! Name
  5.3,                                    ! Maximum Dry-Bulb Temperature {C}
  0,                                      ! Daily Dry-Bulb Temperature Range {deltaC}
  -4.1,                                   ! Humidity Indicating Conditions at Maximum Dry-Bulb {BasedOnField A3}
  100582,                                 ! Barometric Pressure {Pa}
  2,                                      ! Wind Speed {m/s}
  90,                                     ! Wind Direction {deg}
  0,                                      ! Sky Clearness
  0,                                      ! Rain Indicator
  0,                                      ! Snow Indicator
  21,                                     ! Day of Month
  12,                                     ! Month
  WinterDesignDay,                        ! Day Type
  0,                                      ! Daylight Saving Time Indicator
  Dewpoint,                               ! Humidity Indicating Type
  ,                                       ! Humidity Indicating Day Schedule Name
  DefaultMultipliers,                     ! Dry-Bulb Temperature Range Modifier Type
  ,                                       ! Dry-Bulb Temperature Range Modifier Schedule Name
  ASHRAEClearSky;                         ! Solar Model Indicator

OS:ComponentData,
  {20f35fc1-803e-45df-bc4c-99b8f4481f94}, ! Handle
  Component Data 1,                       ! Name
  {d238b61f-8e43-4c50-a4fc-43b00276accd}, ! UUID
  {191838df-bcfe-4327-839e-936e70e2af41}, ! Version UUID
  1366306353,                             ! Creation Timestamp
  1366306353,                             ! Version Timestamp
  {debf609c-5a28-42f4-ac81-c1adb19cab82}; ! Name of Object 1

