
OS:Version,
  {fcaa69e8-c821-4124-bf46-eb4b1a60da27}, ! Handle
  0.9.3;                                  ! Version Identifier

OS:SizingPeriod:DesignDay,
  {083937aa-cccb-49c8-9d81-0446879a0393}, ! Handle
  Henderson City Ann Clg .4% Condns WB=>MDB, ! Name
  32.2,                                   ! Maximum Dry-Bulb Temperature {C}
  10.9,                                   ! Daily Dry-Bulb Temperature Range {deltaC}
  26.4,                                   ! Humidity Indicating Conditions at Maximum Dry-Bulb {BasedOnField A3}
  99927,                                  ! Barometric Pressure {Pa}
  3,                                      ! Wind Speed {m/s}
  210,                                    ! Wind Direction {deg}
  0,                                      ! Sky Clearness
  0,                                      ! Rain Indicator
  0,                                      ! Snow Indicator
  21,                                     ! Day of Month
  7,                                      ! Month
  SummerDesignDay,                        ! Day Type
  0,                                      ! Daylight Saving Time Indicator
  Wetbulb,                                ! Humidity Indicating Type
  ,                                       ! Humidity Indicating Day Schedule Name
  DefaultMultipliers,                     ! Dry-Bulb Temperature Range Modifier Type
  ,                                       ! Dry-Bulb Temperature Range Modifier Schedule Name
  ASHRAETau,                              ! Solar Model Indicator
  ,                                       ! Beam Solar Day Schedule Name
  ,                                       ! Diffuse Solar Day Schedule Name
  0.508,                                  ! ASHRAE Taub {dimensionless}
  1.886;                                  ! ASHRAE Taud {dimensionless}

OS:ComponentData,
  {4d5b3686-5816-4a73-8e94-a9c64df3ce1a}, ! Handle
  Component Data 1,                       ! Name
  {ac43a4d1-572e-48f6-bcb1-e72a527c2201}, ! UUID
  {fcc2c0ef-42d9-4d6c-8374-7012ba14bae0}, ! Version UUID
  1366307638,                             ! Creation Timestamp
  1366307638,                             ! Version Timestamp
  {083937aa-cccb-49c8-9d81-0446879a0393}; ! Name of Object 1

