
OS:Version,
  {f7e2801b-80af-4e79-a1a0-589da93ffbfd}, ! Handle
  0.9.3;                                  ! Version Identifier

OS:SizingPeriod:DesignDay,
  {18375a72-07b9-40ba-8fcb-8174ac8a0417}, ! Handle
  Asheville Ann Clg 1% Condns DP=>MDB,    ! Name
  24.7,                                   ! Maximum Dry-Bulb Temperature {C}
  10.7,                                   ! Daily Dry-Bulb Temperature Range {deltaC}
  21.3,                                   ! Humidity Indicating Conditions at Maximum Dry-Bulb {BasedOnField A3}
  93632,                                  ! Barometric Pressure {Pa}
  3.8,                                    ! Wind Speed {m/s}
  340,                                    ! Wind Direction {deg}
  0,                                      ! Sky Clearness
  0,                                      ! Rain Indicator
  0,                                      ! Snow Indicator
  21,                                     ! Day of Month
  7,                                      ! Month
  SummerDesignDay,                        ! Day Type
  0,                                      ! Daylight Saving Time Indicator
  Dewpoint,                               ! Humidity Indicating Type
  ,                                       ! Humidity Indicating Day Schedule Name
  DefaultMultipliers,                     ! Dry-Bulb Temperature Range Modifier Type
  ,                                       ! Dry-Bulb Temperature Range Modifier Schedule Name
  ASHRAETau,                              ! Solar Model Indicator
  ,                                       ! Beam Solar Day Schedule Name
  ,                                       ! Diffuse Solar Day Schedule Name
  0.517,                                  ! ASHRAE Taub {dimensionless}
  1.849;                                  ! ASHRAE Taud {dimensionless}

OS:ComponentData,
  {b50bde51-d035-4b0b-a7ef-387d7dda7a57}, ! Handle
  Component Data 1,                       ! Name
  {3b2d3083-e406-4ad8-b96d-545b2179e920}, ! UUID
  {9594c2d4-efde-46a8-a485-77953c012da5}, ! Version UUID
  1366308865,                             ! Creation Timestamp
  1366308865,                             ! Version Timestamp
  {18375a72-07b9-40ba-8fcb-8174ac8a0417}; ! Name of Object 1

