
OS:Version,
  {bc115029-b214-4cda-a972-b2c2cab1ed27}, ! Handle
  0.9.3;                                  ! Version Identifier

OS:SizingPeriod:DesignDay,
  {b27483b5-5950-41ed-8b44-e0501873957b}, ! Handle
  Atlanta Ann Clg 2% Condns DB=>MWB,      ! Name
  31.9,                                   ! Maximum Dry-Bulb Temperature {C}
  9.5,                                    ! Daily Dry-Bulb Temperature Range {deltaC}
  23,                                     ! Humidity Indicating Conditions at Maximum Dry-Bulb {BasedOnField A3}
  97598,                                  ! Barometric Pressure {Pa}
  4,                                      ! Wind Speed {m/s}
  300,                                    ! Wind Direction {deg}
  0,                                      ! Sky Clearness
  0,                                      ! Rain Indicator
  0,                                      ! Snow Indicator
  21,                                     ! Day of Month
  7,                                      ! Month
  SummerDesignDay,                        ! Day Type
  0,                                      ! Daylight Saving Time Indicator
  Wetbulb,                                ! Humidity Indicating Type
  ,                                       ! Humidity Indicating Day Schedule Name
  DefaultMultipliers,                     ! Dry-Bulb Temperature Range Modifier Type
  ,                                       ! Dry-Bulb Temperature Range Modifier Schedule Name
  ASHRAETau,                              ! Solar Model Indicator
  ,                                       ! Beam Solar Day Schedule Name
  ,                                       ! Diffuse Solar Day Schedule Name
  0.556,                                  ! ASHRAE Taub {dimensionless}
  1.779;                                  ! ASHRAE Taud {dimensionless}

OS:ComponentData,
  {fe97409d-40a8-4b56-bfa1-90a6cb76d69c}, ! Handle
  Component Data 1,                       ! Name
  {317312d0-70e3-4044-bc20-bd98b02da1e5}, ! UUID
  {c6a6ae90-3db3-49cc-a56d-99d79e4166e4}, ! Version UUID
  1366306975,                             ! Creation Timestamp
  1366306975,                             ! Version Timestamp
  {b27483b5-5950-41ed-8b44-e0501873957b}; ! Name of Object 1

