
OS:Version,
  {3211792e-01d1-4ae2-ab17-441242977a1c}, ! Handle
  0.9.3;                                  ! Version Identifier

OS:SizingPeriod:DesignDay,
  {926c64e9-e78c-4242-8a9a-f0b38e7773c7}, ! Handle
  Hancock Houghton Co Ap Ann Clg 2% Condns DB=>MWB, ! Name
  25.7,                                   ! Maximum Dry-Bulb Temperature {C}
  10.5,                                   ! Daily Dry-Bulb Temperature Range {deltaC}
  19.1,                                   ! Humidity Indicating Conditions at Maximum Dry-Bulb {BasedOnField A3}
  97458,                                  ! Barometric Pressure {Pa}
  4.7,                                    ! Wind Speed {m/s}
  270,                                    ! Wind Direction {deg}
  0,                                      ! Sky Clearness
  0,                                      ! Rain Indicator
  0,                                      ! Snow Indicator
  21,                                     ! Day of Month
  7,                                      ! Month
  SummerDesignDay,                        ! Day Type
  0,                                      ! Daylight Saving Time Indicator
  Wetbulb,                                ! Humidity Indicating Type
  ,                                       ! Humidity Indicating Day Schedule Name
  DefaultMultipliers,                     ! Dry-Bulb Temperature Range Modifier Type
  ,                                       ! Dry-Bulb Temperature Range Modifier Schedule Name
  ASHRAETau,                              ! Solar Model Indicator
  ,                                       ! Beam Solar Day Schedule Name
  ,                                       ! Diffuse Solar Day Schedule Name
  0.413,                                  ! ASHRAE Taub {dimensionless}
  2.179;                                  ! ASHRAE Taud {dimensionless}

OS:ComponentData,
  {29df3dc1-ea10-4b0e-800b-55268acf5fd4}, ! Handle
  Component Data 1,                       ! Name
  {079f1cce-a6b5-4d04-b659-57dc0720422c}, ! UUID
  {66778c63-2b11-4ede-adef-33f76165ff27}, ! Version UUID
  1366308022,                             ! Creation Timestamp
  1366308022,                             ! Version Timestamp
  {926c64e9-e78c-4242-8a9a-f0b38e7773c7}; ! Name of Object 1

