
OS:Version,
  {5bdcde2c-3e61-409e-85f0-49f741083c08}, ! Handle
  0.9.3;                                  ! Version Identifier

OS:SizingPeriod:DesignDay,
  {649246db-4b5d-4b98-823e-39819f194c89}, ! Handle
  Grand Island Ann Htg 99% Condns DB,     ! Name
  -17.8,                                  ! Maximum Dry-Bulb Temperature {C}
  0,                                      ! Daily Dry-Bulb Temperature Range {deltaC}
  -17.8,                                  ! Humidity Indicating Conditions at Maximum Dry-Bulb {BasedOnField A3}
  94708,                                  ! Barometric Pressure {Pa}
  4.7,                                    ! Wind Speed {m/s}
  0,                                      ! Wind Direction {deg}
  0,                                      ! Sky Clearness
  0,                                      ! Rain Indicator
  0,                                      ! Snow Indicator
  21,                                     ! Day of Month
  1,                                      ! Month
  WinterDesignDay,                        ! Day Type
  0,                                      ! Daylight Saving Time Indicator
  Wetbulb,                                ! Humidity Indicating Type
  ,                                       ! Humidity Indicating Day Schedule Name
  DefaultMultipliers,                     ! Dry-Bulb Temperature Range Modifier Type
  ,                                       ! Dry-Bulb Temperature Range Modifier Schedule Name
  ASHRAEClearSky;                         ! Solar Model Indicator

OS:ComponentData,
  {d4a7faca-b113-4f62-a9b0-ab88f98e2de2}, ! Handle
  Component Data 1,                       ! Name
  {977dba0c-369a-4cb4-908b-c51f879f474b}, ! UUID
  {2eac8580-16e2-4418-8e8a-e40c7916c093}, ! Version UUID
  1366309107,                             ! Creation Timestamp
  1366309107,                             ! Version Timestamp
  {649246db-4b5d-4b98-823e-39819f194c89}; ! Name of Object 1

