
OS:Version,
  {56fa8af8-97fc-4070-8eb5-3ae99b39a276}, ! Handle
  0.9.3;                                  ! Version Identifier

OS:SizingPeriod:DesignDay,
  {775ad072-eaf7-42a9-97fd-0d0931afb771}, ! Handle
  Grand Island Ann Hum_n 99% Condns DP=>MCDB, ! Name
  -17.6,                                  ! Maximum Dry-Bulb Temperature {C}
  0,                                      ! Daily Dry-Bulb Temperature Range {deltaC}
  -22.3,                                  ! Humidity Indicating Conditions at Maximum Dry-Bulb {BasedOnField A3}
  94708,                                  ! Barometric Pressure {Pa}
  4.7,                                    ! Wind Speed {m/s}
  0,                                      ! Wind Direction {deg}
  0,                                      ! Sky Clearness
  0,                                      ! Rain Indicator
  0,                                      ! Snow Indicator
  21,                                     ! Day of Month
  1,                                      ! Month
  WinterDesignDay,                        ! Day Type
  0,                                      ! Daylight Saving Time Indicator
  Dewpoint,                               ! Humidity Indicating Type
  ,                                       ! Humidity Indicating Day Schedule Name
  DefaultMultipliers,                     ! Dry-Bulb Temperature Range Modifier Type
  ,                                       ! Dry-Bulb Temperature Range Modifier Schedule Name
  ASHRAEClearSky;                         ! Solar Model Indicator

OS:ComponentData,
  {dcd5d725-51c8-44c0-b759-22a51dedf0d8}, ! Handle
  Component Data 1,                       ! Name
  {213a65a6-8d86-4cbf-b09a-8a244bda2b5b}, ! UUID
  {067d7e10-df99-4318-9e8a-ddb9c50ae81a}, ! Version UUID
  1366309108,                             ! Creation Timestamp
  1366309108,                             ! Version Timestamp
  {775ad072-eaf7-42a9-97fd-0d0931afb771}; ! Name of Object 1

