
OS:Version,
  {ff7ff2b1-3143-49c1-9147-45bb02cfe811}, ! Handle
  0.9.3;                                  ! Version Identifier

OS:SizingPeriod:DesignDay,
  {39eab89e-d104-41f2-a871-589200d005d2}, ! Handle
  Decatur Ann Clg 2% Condns DB=>MWB,      ! Name
  31.2,                                   ! Maximum Dry-Bulb Temperature {C}
  11.2,                                   ! Daily Dry-Bulb Temperature Range {deltaC}
  23.5,                                   ! Humidity Indicating Conditions at Maximum Dry-Bulb {BasedOnField A3}
  98792,                                  ! Barometric Pressure {Pa}
  4.9,                                    ! Wind Speed {m/s}
  240,                                    ! Wind Direction {deg}
  0,                                      ! Sky Clearness
  0,                                      ! Rain Indicator
  0,                                      ! Snow Indicator
  21,                                     ! Day of Month
  7,                                      ! Month
  SummerDesignDay,                        ! Day Type
  0,                                      ! Daylight Saving Time Indicator
  Wetbulb,                                ! Humidity Indicating Type
  ,                                       ! Humidity Indicating Day Schedule Name
  DefaultMultipliers,                     ! Dry-Bulb Temperature Range Modifier Type
  ,                                       ! Dry-Bulb Temperature Range Modifier Schedule Name
  ASHRAETau,                              ! Solar Model Indicator
  ,                                       ! Beam Solar Day Schedule Name
  ,                                       ! Diffuse Solar Day Schedule Name
  0.462,                                  ! ASHRAE Taub {dimensionless}
  2.022;                                  ! ASHRAE Taud {dimensionless}

OS:ComponentData,
  {f1d6d1cd-55f0-455c-8dc7-5b233d8fe832}, ! Handle
  Component Data 1,                       ! Name
  {7d310b8d-ee05-4ccc-9926-9458f9beb5bb}, ! UUID
  {bad88799-5ab7-4028-bb8d-597d27fd74c4}, ! Version UUID
  1366307355,                             ! Creation Timestamp
  1366307355,                             ! Version Timestamp
  {39eab89e-d104-41f2-a871-589200d005d2}; ! Name of Object 1

