
OS:Version,
  {594a584b-2b41-4802-b7fe-e02c2e3b7cef}, ! Handle
  0.9.3;                                  ! Version Identifier

OS:SizingPeriod:DesignDay,
  {a9035564-5309-4c32-8692-711f99feca99}, ! Handle
  Gulkana Intermediate Field Ann Clg 2% Condns DB=>MWB, ! Name
  21.2,                                   ! Maximum Dry-Bulb Temperature {C}
  11.7,                                   ! Daily Dry-Bulb Temperature Range {deltaC}
  12.6,                                   ! Humidity Indicating Conditions at Maximum Dry-Bulb {BasedOnField A3}
  95713,                                  ! Barometric Pressure {Pa}
  2.6,                                    ! Wind Speed {m/s}
  160,                                    ! Wind Direction {deg}
  0,                                      ! Sky Clearness
  0,                                      ! Rain Indicator
  0,                                      ! Snow Indicator
  21,                                     ! Day of Month
  7,                                      ! Month
  SummerDesignDay,                        ! Day Type
  0,                                      ! Daylight Saving Time Indicator
  Wetbulb,                                ! Humidity Indicating Type
  ,                                       ! Humidity Indicating Day Schedule Name
  DefaultMultipliers,                     ! Dry-Bulb Temperature Range Modifier Type
  ,                                       ! Dry-Bulb Temperature Range Modifier Schedule Name
  ASHRAETau,                              ! Solar Model Indicator
  ,                                       ! Beam Solar Day Schedule Name
  ,                                       ! Diffuse Solar Day Schedule Name
  0.385,                                  ! ASHRAE Taub {dimensionless}
  2.111;                                  ! ASHRAE Taud {dimensionless}

OS:ComponentData,
  {4d0d310e-0398-4938-a1e7-9eb7ee5ed75b}, ! Handle
  Component Data 1,                       ! Name
  {d38b73f4-3843-4222-8958-80a45b652d1a}, ! UUID
  {fd14ca17-5948-4b05-9811-17e5d153cc3d}, ! Version UUID
  1366305294,                             ! Creation Timestamp
  1366305294,                             ! Version Timestamp
  {a9035564-5309-4c32-8692-711f99feca99}; ! Name of Object 1

