
OS:Version,
  {3784e4bf-414e-40c7-90c3-f528205e396f}, ! Handle
  0.9.3;                                  ! Version Identifier

OS:SizingPeriod:DesignDay,
  {dc28d9ab-28da-4501-9d31-c6f35919ef2c}, ! Handle
  Columbus Muni Ann Clg 2% Condns WB=>MDB, ! Name
  29.2,                                   ! Maximum Dry-Bulb Temperature {C}
  11.3,                                   ! Daily Dry-Bulb Temperature Range {deltaC}
  23.7,                                   ! Humidity Indicating Conditions at Maximum Dry-Bulb {BasedOnField A3}
  96023,                                  ! Barometric Pressure {Pa}
  5.4,                                    ! Wind Speed {m/s}
  180,                                    ! Wind Direction {deg}
  0,                                      ! Sky Clearness
  0,                                      ! Rain Indicator
  0,                                      ! Snow Indicator
  21,                                     ! Day of Month
  7,                                      ! Month
  SummerDesignDay,                        ! Day Type
  0,                                      ! Daylight Saving Time Indicator
  Wetbulb,                                ! Humidity Indicating Type
  ,                                       ! Humidity Indicating Day Schedule Name
  DefaultMultipliers,                     ! Dry-Bulb Temperature Range Modifier Type
  ,                                       ! Dry-Bulb Temperature Range Modifier Schedule Name
  ASHRAETau,                              ! Solar Model Indicator
  ,                                       ! Beam Solar Day Schedule Name
  ,                                       ! Diffuse Solar Day Schedule Name
  0.407,                                  ! ASHRAE Taub {dimensionless}
  2.237;                                  ! ASHRAE Taud {dimensionless}

OS:ComponentData,
  {f87895f2-737a-4f2b-a32d-817f53482f8e}, ! Handle
  Component Data 1,                       ! Name
  {b2b2ff5a-a564-4c63-9afa-69e09f22f074}, ! UUID
  {45a22a6d-bcb4-421f-91e6-5dd4d2e022ea}, ! Version UUID
  1366309098,                             ! Creation Timestamp
  1366309098,                             ! Version Timestamp
  {dc28d9ab-28da-4501-9d31-c6f35919ef2c}; ! Name of Object 1

