
OS:Version,
  {21a62d5b-d41b-4e8c-9414-4c7a58f634b2}, ! Handle
  0.9.3;                                  ! Version Identifier

OS:SizingPeriod:DesignDay,
  {2112f248-5728-402a-8f54-2840c06070c7}, ! Handle
  LITTLE_ROCK Ann Clg 1% Condns DB=>MWB,  ! Name
  35.7,                                   ! Maximum Dry-Bulb Temperature {C}
  11.1,                                   ! Daily Dry-Bulb Temperature Range {deltaC}
  25.3,                                   ! Humidity Indicating Conditions at Maximum Dry-Bulb {BasedOnField A3}
  100356,                                 ! Barometric Pressure {Pa}
  3.5,                                    ! Wind Speed {m/s}
  190,                                    ! Wind Direction {deg}
  0,                                      ! Sky Clearness
  0,                                      ! Rain Indicator
  0,                                      ! Snow Indicator
  21,                                     ! Day of Month
  7,                                      ! Month
  SummerDesignDay,                        ! Day Type
  0,                                      ! Daylight Saving Time Indicator
  Wetbulb,                                ! Humidity Indicating Type
  ,                                       ! Humidity Indicating Day Schedule Name
  DefaultMultipliers,                     ! Dry-Bulb Temperature Range Modifier Type
  ,                                       ! Dry-Bulb Temperature Range Modifier Schedule Name
  ASHRAETau,                              ! Solar Model Indicator
  ,                                       ! Beam Solar Day Schedule Name
  ,                                       ! Diffuse Solar Day Schedule Name
  0.512,                                  ! ASHRAE Taub {dimensionless}
  1.909;                                  ! ASHRAE Taud {dimensionless}

OS:ComponentData,
  {89afcc78-4ea5-4d93-bf83-4c4d4c347832}, ! Handle
  Component Data 1,                       ! Name
  {1858a035-5d51-4fee-bbf3-fcca19dbd60b}, ! UUID
  {69548b13-9707-4199-a2f0-cbb80c3fafcc}, ! Version UUID
  1366306231,                             ! Creation Timestamp
  1366306231,                             ! Version Timestamp
  {2112f248-5728-402a-8f54-2840c06070c7}; ! Name of Object 1

