
OS:Version,
  {39236699-7fb0-481f-91e2-727d6644173c}, ! Handle
  0.9.3;                                  ! Version Identifier

OS:SizingPeriod:DesignDay,
  {a8916925-c274-4395-ac90-6ee70d3116fc}, ! Handle
  Escanaba  Awos Ann Clg 1% Condns DP=>MDB, ! Name
  23.7,                                   ! Maximum Dry-Bulb Temperature {C}
  10.1,                                   ! Daily Dry-Bulb Temperature Range {deltaC}
  20.3,                                   ! Humidity Indicating Conditions at Maximum Dry-Bulb {BasedOnField A3}
  99099,                                  ! Barometric Pressure {Pa}
  5.1,                                    ! Wind Speed {m/s}
  190,                                    ! Wind Direction {deg}
  0,                                      ! Sky Clearness
  0,                                      ! Rain Indicator
  0,                                      ! Snow Indicator
  21,                                     ! Day of Month
  7,                                      ! Month
  SummerDesignDay,                        ! Day Type
  0,                                      ! Daylight Saving Time Indicator
  Dewpoint,                               ! Humidity Indicating Type
  ,                                       ! Humidity Indicating Day Schedule Name
  DefaultMultipliers,                     ! Dry-Bulb Temperature Range Modifier Type
  ,                                       ! Dry-Bulb Temperature Range Modifier Schedule Name
  ASHRAETau,                              ! Solar Model Indicator
  ,                                       ! Beam Solar Day Schedule Name
  ,                                       ! Diffuse Solar Day Schedule Name
  0.425,                                  ! ASHRAE Taub {dimensionless}
  2.15;                                   ! ASHRAE Taud {dimensionless}

OS:ComponentData,
  {9b20ae88-6465-4f0c-be7c-7b24c31ef8ec}, ! Handle
  Component Data 1,                       ! Name
  {0b837b94-0162-4ee8-979b-6a3477d74d7b}, ! UUID
  {10bfc67d-3188-4be1-8b08-4fa971765ad1}, ! Version UUID
  1366307992,                             ! Creation Timestamp
  1366307992,                             ! Version Timestamp
  {a8916925-c274-4395-ac90-6ee70d3116fc}; ! Name of Object 1

