
OS:Version,
  {1c503db5-d88b-4fd6-827b-52d5f8c609a8}, ! Handle
  0.9.3;                                  ! Version Identifier

OS:SizingPeriod:DesignDay,
  {b786edbd-49f7-4d96-ae98-efd64e991c49}, ! Handle
  Bowling Green Warren Co Ap Ann Clg 2% Condns DB=>MWB, ! Name
  31.5,                                   ! Maximum Dry-Bulb Temperature {C}
  10.7,                                   ! Daily Dry-Bulb Temperature Range {deltaC}
  23.7,                                   ! Humidity Indicating Conditions at Maximum Dry-Bulb {BasedOnField A3}
  99406,                                  ! Barometric Pressure {Pa}
  3.8,                                    ! Wind Speed {m/s}
  240,                                    ! Wind Direction {deg}
  0,                                      ! Sky Clearness
  0,                                      ! Rain Indicator
  0,                                      ! Snow Indicator
  21,                                     ! Day of Month
  7,                                      ! Month
  SummerDesignDay,                        ! Day Type
  0,                                      ! Daylight Saving Time Indicator
  Wetbulb,                                ! Humidity Indicating Type
  ,                                       ! Humidity Indicating Day Schedule Name
  DefaultMultipliers,                     ! Dry-Bulb Temperature Range Modifier Type
  ,                                       ! Dry-Bulb Temperature Range Modifier Schedule Name
  ASHRAETau,                              ! Solar Model Indicator
  ,                                       ! Beam Solar Day Schedule Name
  ,                                       ! Diffuse Solar Day Schedule Name
  0.527,                                  ! ASHRAE Taub {dimensionless}
  1.838;                                  ! ASHRAE Taud {dimensionless}

OS:ComponentData,
  {8b8f9e48-a45e-41dc-98f7-d4c7bd133f2a}, ! Handle
  Component Data 1,                       ! Name
  {1339beb7-0e1f-4074-8167-ad9eea7a6bd4}, ! UUID
  {e024cade-fe28-40df-b788-e88077703720}, ! Version UUID
  1366307611,                             ! Creation Timestamp
  1366307611,                             ! Version Timestamp
  {b786edbd-49f7-4d96-ae98-efd64e991c49}; ! Name of Object 1

