
OS:Version,
  {e8463eb0-b73d-4933-aa57-780b6bdefdcb}, ! Handle
  0.9.3;                                  ! Version Identifier

OS:SizingPeriod:DesignDay,
  {06058a0d-8a08-4ede-97c5-096770e6af11}, ! Handle
  LEXINGTON Ann Htg Wind 99.6% Condns WS=>MCDB, ! Name
  6.9,                                    ! Maximum Dry-Bulb Temperature {C}
  0,                                      ! Daily Dry-Bulb Temperature Range {deltaC}
  6.9,                                    ! Humidity Indicating Conditions at Maximum Dry-Bulb {BasedOnField A3}
  97761,                                  ! Barometric Pressure {Pa}
  11.1,                                   ! Wind Speed {m/s}
  290,                                    ! Wind Direction {deg}
  0,                                      ! Sky Clearness
  0,                                      ! Rain Indicator
  0,                                      ! Snow Indicator
  21,                                     ! Day of Month
  1,                                      ! Month
  WinterDesignDay,                        ! Day Type
  0,                                      ! Daylight Saving Time Indicator
  Wetbulb,                                ! Humidity Indicating Type
  ,                                       ! Humidity Indicating Day Schedule Name
  DefaultMultipliers,                     ! Dry-Bulb Temperature Range Modifier Type
  ,                                       ! Dry-Bulb Temperature Range Modifier Schedule Name
  ASHRAEClearSky;                         ! Solar Model Indicator

OS:ComponentData,
  {27700eaa-d47c-4fe1-b564-b261a48566e6}, ! Handle
  Component Data 1,                       ! Name
  {43f0ddae-7185-47c2-a256-577dc56cfb76}, ! UUID
  {d1fc86ff-a55b-4b57-bb76-b1499450dd90}, ! Version UUID
  1366307655,                             ! Creation Timestamp
  1366307655,                             ! Version Timestamp
  {06058a0d-8a08-4ede-97c5-096770e6af11}; ! Name of Object 1

