
OS:Version,
  {1e697a13-60cf-4860-a083-77b36d3fbd0e}, ! Handle
  0.9.3;                                  ! Version Identifier

OS:SizingPeriod:DesignDay,
  {a8a0e3b3-0214-4fe6-b838-5101536a9aeb}, ! Handle
  Jamestown  Awos Ann Htg Wind 99.6% Condns WS=>MCDB, ! Name
  -3.6,                                   ! Maximum Dry-Bulb Temperature {C}
  0,                                      ! Daily Dry-Bulb Temperature Range {deltaC}
  -3.6,                                   ! Humidity Indicating Conditions at Maximum Dry-Bulb {BasedOnField A3}
  95175,                                  ! Barometric Pressure {Pa}
  11.1,                                   ! Wind Speed {m/s}
  230,                                    ! Wind Direction {deg}
  0,                                      ! Sky Clearness
  0,                                      ! Rain Indicator
  0,                                      ! Snow Indicator
  21,                                     ! Day of Month
  1,                                      ! Month
  WinterDesignDay,                        ! Day Type
  0,                                      ! Daylight Saving Time Indicator
  Wetbulb,                                ! Humidity Indicating Type
  ,                                       ! Humidity Indicating Day Schedule Name
  DefaultMultipliers,                     ! Dry-Bulb Temperature Range Modifier Type
  ,                                       ! Dry-Bulb Temperature Range Modifier Schedule Name
  ASHRAEClearSky;                         ! Solar Model Indicator

OS:ComponentData,
  {03575f42-25a1-479b-b6f6-9510ab3de991}, ! Handle
  Component Data 1,                       ! Name
  {0650f0dc-7fda-4e56-a846-94bde547c786}, ! UUID
  {69e599c4-63bf-4872-b069-6159d5080b21}, ! Version UUID
  1366309640,                             ! Creation Timestamp
  1366309640,                             ! Version Timestamp
  {a8a0e3b3-0214-4fe6-b838-5101536a9aeb}; ! Name of Object 1

