
OS:Version,
  {8c32c614-30ee-4634-a9ac-40a77d1755fe}, ! Handle
  0.9.3;                                  ! Version Identifier

OS:SizingPeriod:DesignDay,
  {787215df-7c82-4be9-9337-e647ea650d6c}, ! Handle
  Killeen Muni  Awos Ann Clg 1% Condns Enth=>MDB, ! Name
  32.5,                                   ! Maximum Dry-Bulb Temperature {C}
  11.5,                                   ! Daily Dry-Bulb Temperature Range {deltaC}
  77400,                                  ! Humidity Indicating Conditions at Maximum Dry-Bulb {BasedOnField A3}
  98264,                                  ! Barometric Pressure {Pa}
  4.4,                                    ! Wind Speed {m/s}
  170,                                    ! Wind Direction {deg}
  0,                                      ! Sky Clearness
  0,                                      ! Rain Indicator
  0,                                      ! Snow Indicator
  21,                                     ! Day of Month
  7,                                      ! Month
  SummerDesignDay,                        ! Day Type
  0,                                      ! Daylight Saving Time Indicator
  Enthalpy,                               ! Humidity Indicating Type
  ,                                       ! Humidity Indicating Day Schedule Name
  DefaultMultipliers,                     ! Dry-Bulb Temperature Range Modifier Type
  ,                                       ! Dry-Bulb Temperature Range Modifier Schedule Name
  ASHRAETau,                              ! Solar Model Indicator
  ,                                       ! Beam Solar Day Schedule Name
  ,                                       ! Diffuse Solar Day Schedule Name
  0.445,                                  ! ASHRAE Taub {dimensionless}
  2.145;                                  ! ASHRAE Taud {dimensionless}

OS:ComponentData,
  {f1f79f8c-1f97-488e-a2bb-e3df90c6919c}, ! Handle
  Component Data 1,                       ! Name
  {ccfb1577-d8e2-45a7-88d3-3eedfbb19e5a}, ! UUID
  {fd555da4-ab77-4f9a-91ef-c532bcf3de80}, ! Version UUID
  1366310769,                             ! Creation Timestamp
  1366310769,                             ! Version Timestamp
  {787215df-7c82-4be9-9337-e647ea650d6c}; ! Name of Object 1

