
OS:Version,
  {c60fbcab-633c-4610-a6ff-f5ccaed3ed2d}, ! Handle
  0.9.3;                                  ! Version Identifier

OS:SizingPeriod:DesignDay,
  {7ec7eafe-5d84-4cc0-8836-a3bfb5711eb1}, ! Handle
  Fullerton Municipal Ann Htg Wind 99.6% Condns WS=>MCDB, ! Name
  20,                                     ! Maximum Dry-Bulb Temperature {C}
  0,                                      ! Daily Dry-Bulb Temperature Range {deltaC}
  20,                                     ! Humidity Indicating Conditions at Maximum Dry-Bulb {BasedOnField A3}
  100977,                                 ! Barometric Pressure {Pa}
  9,                                      ! Wind Speed {m/s}
  90,                                     ! Wind Direction {deg}
  0,                                      ! Sky Clearness
  0,                                      ! Rain Indicator
  0,                                      ! Snow Indicator
  21,                                     ! Day of Month
  12,                                     ! Month
  WinterDesignDay,                        ! Day Type
  0,                                      ! Daylight Saving Time Indicator
  Wetbulb,                                ! Humidity Indicating Type
  ,                                       ! Humidity Indicating Day Schedule Name
  DefaultMultipliers,                     ! Dry-Bulb Temperature Range Modifier Type
  ,                                       ! Dry-Bulb Temperature Range Modifier Schedule Name
  ASHRAEClearSky;                         ! Solar Model Indicator

OS:ComponentData,
  {a277deb6-d758-4d3c-b24b-78a51a3cd99d}, ! Handle
  Component Data 1,                       ! Name
  {2c19088a-a0d8-419a-9781-d4f0e0e2068b}, ! UUID
  {398ae0e9-bfd7-49e4-837c-95dc7100c87c}, ! Version UUID
  1366306441,                             ! Creation Timestamp
  1366306441,                             ! Version Timestamp
  {7ec7eafe-5d84-4cc0-8836-a3bfb5711eb1}; ! Name of Object 1

