
OS:Version,
  {d8725f91-ed8c-4a30-b337-744f0d4f2473}, ! Handle
  0.9.3;                                  ! Version Identifier

OS:SizingPeriod:DesignDay,
  {7d575d64-e1d9-48c7-9f0c-15babfe5279d}, ! Handle
  HOUGHTON Ann Hum_n 99.6% Condns DP=>MCDB, ! Name
  -20.2,                                  ! Maximum Dry-Bulb Temperature {C}
  0,                                      ! Daily Dry-Bulb Temperature Range {deltaC}
  -24.5,                                  ! Humidity Indicating Conditions at Maximum Dry-Bulb {BasedOnField A3}
  97435,                                  ! Barometric Pressure {Pa}
  4.3,                                    ! Wind Speed {m/s}
  310,                                    ! Wind Direction {deg}
  0,                                      ! Sky Clearness
  0,                                      ! Rain Indicator
  0,                                      ! Snow Indicator
  21,                                     ! Day of Month
  1,                                      ! Month
  WinterDesignDay,                        ! Day Type
  0,                                      ! Daylight Saving Time Indicator
  Dewpoint,                               ! Humidity Indicating Type
  ,                                       ! Humidity Indicating Day Schedule Name
  DefaultMultipliers,                     ! Dry-Bulb Temperature Range Modifier Type
  ,                                       ! Dry-Bulb Temperature Range Modifier Schedule Name
  ASHRAEClearSky;                         ! Solar Model Indicator

OS:ComponentData,
  {b4d863ba-fda6-4f85-b43e-d06b2a26d9ea}, ! Handle
  Component Data 1,                       ! Name
  {27c4528f-f19e-4448-a48a-9ab87941ce52}, ! UUID
  {6edce663-1cc8-49a2-86e9-ba6432974af2}, ! Version UUID
  1366308029,                             ! Creation Timestamp
  1366308029,                             ! Version Timestamp
  {7d575d64-e1d9-48c7-9f0c-15babfe5279d}; ! Name of Object 1

