
OS:Version,
  {cec906f1-3a40-4ed8-a74b-95230df18a74}, ! Handle
  0.9.3;                                  ! Version Identifier

OS:SizingPeriod:DesignDay,
  {b96434ba-95df-4c52-8b8c-f64e20988f03}, ! Handle
  Barnstable Muni Boa Ann Clg .4% Condns WB=>MDB, ! Name
  27.6,                                   ! Maximum Dry-Bulb Temperature {C}
  7.8,                                    ! Daily Dry-Bulb Temperature Range {deltaC}
  24.3,                                   ! Humidity Indicating Conditions at Maximum Dry-Bulb {BasedOnField A3}
  101121,                                 ! Barometric Pressure {Pa}
  5.1,                                    ! Wind Speed {m/s}
  240,                                    ! Wind Direction {deg}
  0,                                      ! Sky Clearness
  0,                                      ! Rain Indicator
  0,                                      ! Snow Indicator
  21,                                     ! Day of Month
  7,                                      ! Month
  SummerDesignDay,                        ! Day Type
  0,                                      ! Daylight Saving Time Indicator
  Wetbulb,                                ! Humidity Indicating Type
  ,                                       ! Humidity Indicating Day Schedule Name
  DefaultMultipliers,                     ! Dry-Bulb Temperature Range Modifier Type
  ,                                       ! Dry-Bulb Temperature Range Modifier Schedule Name
  ASHRAETau,                              ! Solar Model Indicator
  ,                                       ! Beam Solar Day Schedule Name
  ,                                       ! Diffuse Solar Day Schedule Name
  0.522,                                  ! ASHRAE Taub {dimensionless}
  1.851;                                  ! ASHRAE Taud {dimensionless}

OS:ComponentData,
  {75c58ad1-1c7d-46b7-8b82-4921a16e42bd}, ! Handle
  Component Data 1,                       ! Name
  {e95e4a26-add9-4797-b2e0-b186a329b336}, ! UUID
  {58c90a4e-1962-4300-a6e2-9be73fab6653}, ! Version UUID
  1366307777,                             ! Creation Timestamp
  1366307777,                             ! Version Timestamp
  {b96434ba-95df-4c52-8b8c-f64e20988f03}; ! Name of Object 1

