
OS:Version,
  {72217d90-9b98-409c-a04d-37849e8f5bd1}, ! Handle
  0.9.3;                                  ! Version Identifier

OS:SizingPeriod:DesignDay,
  {92351d3d-7ec4-4fbe-880f-4b52211eb1e2}, ! Handle
  Barnstable Muni Boa Ann Hum_n 99% Condns DP=>MCDB, ! Name
  -7.5,                                   ! Maximum Dry-Bulb Temperature {C}
  0,                                      ! Daily Dry-Bulb Temperature Range {deltaC}
  -17.8,                                  ! Humidity Indicating Conditions at Maximum Dry-Bulb {BasedOnField A3}
  101121,                                 ! Barometric Pressure {Pa}
  4.2,                                    ! Wind Speed {m/s}
  310,                                    ! Wind Direction {deg}
  0,                                      ! Sky Clearness
  0,                                      ! Rain Indicator
  0,                                      ! Snow Indicator
  21,                                     ! Day of Month
  1,                                      ! Month
  WinterDesignDay,                        ! Day Type
  0,                                      ! Daylight Saving Time Indicator
  Dewpoint,                               ! Humidity Indicating Type
  ,                                       ! Humidity Indicating Day Schedule Name
  DefaultMultipliers,                     ! Dry-Bulb Temperature Range Modifier Type
  ,                                       ! Dry-Bulb Temperature Range Modifier Schedule Name
  ASHRAEClearSky;                         ! Solar Model Indicator

OS:ComponentData,
  {b2104a59-e332-48b1-b687-92d6b0194010}, ! Handle
  Component Data 1,                       ! Name
  {888e8c6a-42d5-4cf9-9475-afe3be40d687}, ! UUID
  {a9560030-2dfd-48ae-b452-2e8ec84c6427}, ! Version UUID
  1366307776,                             ! Creation Timestamp
  1366307776,                             ! Version Timestamp
  {92351d3d-7ec4-4fbe-880f-4b52211eb1e2}; ! Name of Object 1

