
OS:Version,
  {c25868e9-6d06-479b-b5fb-969783d770c6}, ! Handle
  0.9.3;                                  ! Version Identifier

OS:SizingPeriod:DesignDay,
  {1375a19e-5545-4e48-9b99-34eb66f6544f}, ! Handle
  Anchorage Elmendorf Ann Clg 2% Condns DB=>MWB, ! Name
  20,                                     ! Maximum Dry-Bulb Temperature {C}
  7.5,                                    ! Daily Dry-Bulb Temperature Range {deltaC}
  13.4,                                   ! Humidity Indicating Conditions at Maximum Dry-Bulb {BasedOnField A3}
  100618,                                 ! Barometric Pressure {Pa}
  3.8,                                    ! Wind Speed {m/s}
  260,                                    ! Wind Direction {deg}
  0,                                      ! Sky Clearness
  0,                                      ! Rain Indicator
  0,                                      ! Snow Indicator
  21,                                     ! Day of Month
  7,                                      ! Month
  SummerDesignDay,                        ! Day Type
  0,                                      ! Daylight Saving Time Indicator
  Wetbulb,                                ! Humidity Indicating Type
  ,                                       ! Humidity Indicating Day Schedule Name
  DefaultMultipliers,                     ! Dry-Bulb Temperature Range Modifier Type
  ,                                       ! Dry-Bulb Temperature Range Modifier Schedule Name
  ASHRAETau,                              ! Solar Model Indicator
  ,                                       ! Beam Solar Day Schedule Name
  ,                                       ! Diffuse Solar Day Schedule Name
  0.391,                                  ! ASHRAE Taub {dimensionless}
  2.151;                                  ! ASHRAE Taud {dimensionless}

OS:ComponentData,
  {31faec22-49a5-42a1-8026-cec3835d4d32}, ! Handle
  Component Data 1,                       ! Name
  {6834bcca-e529-4169-93e8-55c4fc96cd6f}, ! UUID
  {e2b79d1a-26ee-45c9-8b0b-cadc0dd74725}, ! Version UUID
  1366304692,                             ! Creation Timestamp
  1366304692,                             ! Version Timestamp
  {1375a19e-5545-4e48-9b99-34eb66f6544f}; ! Name of Object 1

