
OS:Version,
  {a700e897-abe7-4bd5-b940-d01b5f54b469}, ! Handle
  0.9.3;                                  ! Version Identifier

OS:SizingPeriod:DesignDay,
  {c07ff864-bbf3-4e62-8442-2c126c847049}, ! Handle
  Ely Yelland Field Ann Clg 1% Condns Enth=>MDB, ! Name
  25.9,                                   ! Maximum Dry-Bulb Temperature {C}
  20.3,                                   ! Daily Dry-Bulb Temperature Range {deltaC}
  48900,                                  ! Humidity Indicating Conditions at Maximum Dry-Bulb {BasedOnField A3}
  80397,                                  ! Barometric Pressure {Pa}
  5.3,                                    ! Wind Speed {m/s}
  220,                                    ! Wind Direction {deg}
  0,                                      ! Sky Clearness
  0,                                      ! Rain Indicator
  0,                                      ! Snow Indicator
  21,                                     ! Day of Month
  7,                                      ! Month
  SummerDesignDay,                        ! Day Type
  0,                                      ! Daylight Saving Time Indicator
  Enthalpy,                               ! Humidity Indicating Type
  ,                                       ! Humidity Indicating Day Schedule Name
  DefaultMultipliers,                     ! Dry-Bulb Temperature Range Modifier Type
  ,                                       ! Dry-Bulb Temperature Range Modifier Schedule Name
  ASHRAETau,                              ! Solar Model Indicator
  ,                                       ! Beam Solar Day Schedule Name
  ,                                       ! Diffuse Solar Day Schedule Name
  0.442,                                  ! ASHRAE Taub {dimensionless}
  1.871;                                  ! ASHRAE Taud {dimensionless}

OS:ComponentData,
  {09ffef63-b059-4614-880d-98201036ba14}, ! Handle
  Component Data 1,                       ! Name
  {ae42ea61-d4bb-42f8-9584-f1f8d10cef53}, ! UUID
  {81c41dcb-effa-498d-bef0-8f3c72e03c99}, ! Version UUID
  1366309479,                             ! Creation Timestamp
  1366309479,                             ! Version Timestamp
  {c07ff864-bbf3-4e62-8442-2c126c847049}; ! Name of Object 1

