
OS:Version,
  {f7b773b0-02da-4923-ab2d-e1927d3356e4}, ! Handle
  0.9.3;                                  ! Version Identifier

OS:SizingPeriod:DesignDay,
  {97177d26-552a-4495-8cc7-e579d82a075e}, ! Handle
  Grand Junction Walker Field Ann Clg 2% Condns WB=>MDB, ! Name
  28.1,                                   ! Maximum Dry-Bulb Temperature {C}
  15.3,                                   ! Daily Dry-Bulb Temperature Range {deltaC}
  17.4,                                   ! Humidity Indicating Conditions at Maximum Dry-Bulb {BasedOnField A3}
  84816,                                  ! Barometric Pressure {Pa}
  4.6,                                    ! Wind Speed {m/s}
  270,                                    ! Wind Direction {deg}
  0,                                      ! Sky Clearness
  0,                                      ! Rain Indicator
  0,                                      ! Snow Indicator
  21,                                     ! Day of Month
  7,                                      ! Month
  SummerDesignDay,                        ! Day Type
  0,                                      ! Daylight Saving Time Indicator
  Wetbulb,                                ! Humidity Indicating Type
  ,                                       ! Humidity Indicating Day Schedule Name
  DefaultMultipliers,                     ! Dry-Bulb Temperature Range Modifier Type
  ,                                       ! Dry-Bulb Temperature Range Modifier Schedule Name
  ASHRAETau,                              ! Solar Model Indicator
  ,                                       ! Beam Solar Day Schedule Name
  ,                                       ! Diffuse Solar Day Schedule Name
  0.41,                                   ! ASHRAE Taub {dimensionless}
  2.106;                                  ! ASHRAE Taud {dimensionless}

OS:ComponentData,
  {acc64230-9864-4686-8c5b-cb8093cfea40}, ! Handle
  Component Data 1,                       ! Name
  {1f5e69f0-efc4-48db-a73b-8e2f576b7f6d}, ! UUID
  {f9ce52ad-eedf-4e92-a0f2-154f72c397f5}, ! Version UUID
  1366306699,                             ! Creation Timestamp
  1366306699,                             ! Version Timestamp
  {97177d26-552a-4495-8cc7-e579d82a075e}; ! Name of Object 1

