
OS:Version,
  {60a58e9b-2a73-4b74-a3d1-70d219cc55df}, ! Handle
  0.9.3;                                  ! Version Identifier

OS:SizingPeriod:DesignDay,
  {b2026d10-9972-41c5-870f-fc10ccd773f5}, ! Handle
  Charleston Ann Clg .4% Condns Enth=>MDB, ! Name
  31.8,                                   ! Maximum Dry-Bulb Temperature {C}
  9,                                      ! Daily Dry-Bulb Temperature Range {deltaC}
  84800,                                  ! Humidity Indicating Conditions at Maximum Dry-Bulb {BasedOnField A3}
  101145,                                 ! Barometric Pressure {Pa}
  4.4,                                    ! Wind Speed {m/s}
  230,                                    ! Wind Direction {deg}
  0,                                      ! Sky Clearness
  0,                                      ! Rain Indicator
  0,                                      ! Snow Indicator
  21,                                     ! Day of Month
  7,                                      ! Month
  SummerDesignDay,                        ! Day Type
  0,                                      ! Daylight Saving Time Indicator
  Enthalpy,                               ! Humidity Indicating Type
  ,                                       ! Humidity Indicating Day Schedule Name
  DefaultMultipliers,                     ! Dry-Bulb Temperature Range Modifier Type
  ,                                       ! Dry-Bulb Temperature Range Modifier Schedule Name
  ASHRAETau,                              ! Solar Model Indicator
  ,                                       ! Beam Solar Day Schedule Name
  ,                                       ! Diffuse Solar Day Schedule Name
  0.559,                                  ! ASHRAE Taub {dimensionless}
  1.811;                                  ! ASHRAE Taud {dimensionless}

OS:ComponentData,
  {4dc07981-35c7-4b84-9ea8-b68f84deda29}, ! Handle
  Component Data 1,                       ! Name
  {4e1d5267-33a9-43ef-9817-45d2df2c015e}, ! UUID
  {9d150606-6964-4bf3-a6e9-045e9d7f149f}, ! Version UUID
  1366310328,                             ! Creation Timestamp
  1366310328,                             ! Version Timestamp
  {b2026d10-9972-41c5-870f-fc10ccd773f5}; ! Name of Object 1

