
OS:Version,
  {80c18e8f-19c4-46a1-b046-735fcce766cb}, ! Handle
  0.9.3;                                  ! Version Identifier

OS:SizingPeriod:DesignDay,
  {56b86ed8-f8e6-4eac-98ac-e683d530eb06}, ! Handle
  Jamestown Municipal Arpt Ann Htg 99% Condns DB, ! Name
  -26,                                    ! Maximum Dry-Bulb Temperature {C}
  0,                                      ! Daily Dry-Bulb Temperature Range {deltaC}
  -26,                                    ! Humidity Indicating Conditions at Maximum Dry-Bulb {BasedOnField A3}
  95977,                                  ! Barometric Pressure {Pa}
  4.9,                                    ! Wind Speed {m/s}
  290,                                    ! Wind Direction {deg}
  0,                                      ! Sky Clearness
  0,                                      ! Rain Indicator
  0,                                      ! Snow Indicator
  21,                                     ! Day of Month
  1,                                      ! Month
  WinterDesignDay,                        ! Day Type
  0,                                      ! Daylight Saving Time Indicator
  Wetbulb,                                ! Humidity Indicating Type
  ,                                       ! Humidity Indicating Day Schedule Name
  DefaultMultipliers,                     ! Dry-Bulb Temperature Range Modifier Type
  ,                                       ! Dry-Bulb Temperature Range Modifier Schedule Name
  ASHRAEClearSky;                         ! Solar Model Indicator

OS:ComponentData,
  {64fa10e5-f3c0-4770-bf7e-d97fbd96bf28}, ! Handle
  Component Data 1,                       ! Name
  {7df54c7a-f5e5-4416-9a98-b950879baf15}, ! UUID
  {3b011db5-4be7-47c7-8cae-a84ad721cb67}, ! Version UUID
  1366309050,                             ! Creation Timestamp
  1366309050,                             ! Version Timestamp
  {56b86ed8-f8e6-4eac-98ac-e683d530eb06}; ! Name of Object 1

