
OS:Version,
  {c1fa4458-bb1e-4248-bd8a-b6ff9e67474c}, ! Handle
  0.9.3;                                  ! Version Identifier

OS:SizingPeriod:DesignDay,
  {f7b90634-fd2b-4d86-9585-c3859a9f19fc}, ! Handle
  Asheville Ann Hum_n 99.6% Condns DP=>MCDB, ! Name
  -4,                                     ! Maximum Dry-Bulb Temperature {C}
  0,                                      ! Daily Dry-Bulb Temperature Range {deltaC}
  -17.9,                                  ! Humidity Indicating Conditions at Maximum Dry-Bulb {BasedOnField A3}
  93632,                                  ! Barometric Pressure {Pa}
  5.4,                                    ! Wind Speed {m/s}
  340,                                    ! Wind Direction {deg}
  0,                                      ! Sky Clearness
  0,                                      ! Rain Indicator
  0,                                      ! Snow Indicator
  21,                                     ! Day of Month
  1,                                      ! Month
  WinterDesignDay,                        ! Day Type
  0,                                      ! Daylight Saving Time Indicator
  Dewpoint,                               ! Humidity Indicating Type
  ,                                       ! Humidity Indicating Day Schedule Name
  DefaultMultipliers,                     ! Dry-Bulb Temperature Range Modifier Type
  ,                                       ! Dry-Bulb Temperature Range Modifier Schedule Name
  ASHRAEClearSky;                         ! Solar Model Indicator

OS:ComponentData,
  {33695d6f-be36-4ad8-997b-8b74c4cc720b}, ! Handle
  Component Data 1,                       ! Name
  {5c5b0c37-7681-4d05-a6f2-f51b954f87df}, ! UUID
  {fafdc85c-93e1-475d-9469-72fc30fd11f8}, ! Version UUID
  1366308864,                             ! Creation Timestamp
  1366308864,                             ! Version Timestamp
  {f7b90634-fd2b-4d86-9585-c3859a9f19fc}; ! Name of Object 1

