
OS:Version,
  {62557ad8-f67a-4443-bf14-f46bd08eb2cf}, ! Handle
  0.9.3;                                  ! Version Identifier

OS:SizingPeriod:DesignDay,
  {6c95d8eb-5ba7-41f1-acb7-ae703397fa4d}, ! Handle
  ELKINS Ann Clg 1% Condns WB=>MDB,       ! Name
  27.2,                                   ! Maximum Dry-Bulb Temperature {C}
  12,                                     ! Daily Dry-Bulb Temperature Range {deltaC}
  22.4,                                   ! Humidity Indicating Conditions at Maximum Dry-Bulb {BasedOnField A3}
  94390,                                  ! Barometric Pressure {Pa}
  3.2,                                    ! Wind Speed {m/s}
  300,                                    ! Wind Direction {deg}
  0,                                      ! Sky Clearness
  0,                                      ! Rain Indicator
  0,                                      ! Snow Indicator
  21,                                     ! Day of Month
  7,                                      ! Month
  SummerDesignDay,                        ! Day Type
  0,                                      ! Daylight Saving Time Indicator
  Wetbulb,                                ! Humidity Indicating Type
  ,                                       ! Humidity Indicating Day Schedule Name
  DefaultMultipliers,                     ! Dry-Bulb Temperature Range Modifier Type
  ,                                       ! Dry-Bulb Temperature Range Modifier Schedule Name
  ASHRAETau,                              ! Solar Model Indicator
  ,                                       ! Beam Solar Day Schedule Name
  ,                                       ! Diffuse Solar Day Schedule Name
  0.489,                                  ! ASHRAE Taub {dimensionless}
  1.911;                                  ! ASHRAE Taud {dimensionless}

OS:ComponentData,
  {ba300b31-6880-4abf-a142-9bbf06baead4}, ! Handle
  Component Data 1,                       ! Name
  {4d338acf-b47a-488b-b466-a272344aa21b}, ! UUID
  {8661d1de-6f43-4954-8673-aa611958cd7c}, ! Version UUID
  1366311647,                             ! Creation Timestamp
  1366311647,                             ! Version Timestamp
  {6c95d8eb-5ba7-41f1-acb7-ae703397fa4d}; ! Name of Object 1

