
OS:Version,
  {6b020021-c387-4f4d-be31-ccd06ffd1903}, ! Handle
  0.9.3;                                  ! Version Identifier

OS:SizingPeriod:DesignDay,
  {f334e452-f078-46bc-a668-3c7bf42a4739}, ! Handle
  Chattanooga Lovell Field Ap Ann Clg .4% Condns DB=>MWB, ! Name
  34.7,                                   ! Maximum Dry-Bulb Temperature {C}
  10.6,                                   ! Daily Dry-Bulb Temperature Range {deltaC}
  23.9,                                   ! Humidity Indicating Conditions at Maximum Dry-Bulb {BasedOnField A3}
  98898,                                  ! Barometric Pressure {Pa}
  3.2,                                    ! Wind Speed {m/s}
  280,                                    ! Wind Direction {deg}
  0,                                      ! Sky Clearness
  0,                                      ! Rain Indicator
  0,                                      ! Snow Indicator
  21,                                     ! Day of Month
  7,                                      ! Month
  SummerDesignDay,                        ! Day Type
  0,                                      ! Daylight Saving Time Indicator
  Wetbulb,                                ! Humidity Indicating Type
  ,                                       ! Humidity Indicating Day Schedule Name
  DefaultMultipliers,                     ! Dry-Bulb Temperature Range Modifier Type
  ,                                       ! Dry-Bulb Temperature Range Modifier Schedule Name
  ASHRAETau,                              ! Solar Model Indicator
  ,                                       ! Beam Solar Day Schedule Name
  ,                                       ! Diffuse Solar Day Schedule Name
  0.562,                                  ! ASHRAE Taub {dimensionless}
  1.761;                                  ! ASHRAE Taud {dimensionless}

OS:ComponentData,
  {29c74b82-fb27-4a9e-8ffb-d59096f78a54}, ! Handle
  Component Data 1,                       ! Name
  {9cf8e875-3f7d-4057-918e-f3412c6f73a9}, ! UUID
  {29f59a9b-4dc7-4526-ad68-9fa4af8ca86b}, ! Version UUID
  1366310488,                             ! Creation Timestamp
  1366310488,                             ! Version Timestamp
  {f334e452-f078-46bc-a668-3c7bf42a4739}; ! Name of Object 1

