
OS:Version,
  {5c306443-8725-41e0-a3aa-cfad73f709fc}, ! Handle
  0.9.3;                                  ! Version Identifier

OS:SizingPeriod:DesignDay,
  {d10a8a7b-6d89-4559-a4e0-7d9f3cc9e263}, ! Handle
  LOUISVILLE Ann Clg 1% Condns DP=>MDB,   ! Name
  28.4,                                   ! Maximum Dry-Bulb Temperature {C}
  9.7,                                    ! Daily Dry-Bulb Temperature Range {deltaC}
  23.6,                                   ! Humidity Indicating Conditions at Maximum Dry-Bulb {BasedOnField A3}
  99548,                                  ! Barometric Pressure {Pa}
  4.2,                                    ! Wind Speed {m/s}
  240,                                    ! Wind Direction {deg}
  0,                                      ! Sky Clearness
  0,                                      ! Rain Indicator
  0,                                      ! Snow Indicator
  21,                                     ! Day of Month
  7,                                      ! Month
  SummerDesignDay,                        ! Day Type
  0,                                      ! Daylight Saving Time Indicator
  Dewpoint,                               ! Humidity Indicating Type
  ,                                       ! Humidity Indicating Day Schedule Name
  DefaultMultipliers,                     ! Dry-Bulb Temperature Range Modifier Type
  ,                                       ! Dry-Bulb Temperature Range Modifier Schedule Name
  ASHRAETau,                              ! Solar Model Indicator
  ,                                       ! Beam Solar Day Schedule Name
  ,                                       ! Diffuse Solar Day Schedule Name
  0.51,                                   ! ASHRAE Taub {dimensionless}
  1.872;                                  ! ASHRAE Taud {dimensionless}

OS:ComponentData,
  {f96b8d68-24da-4fde-abe2-650ab06add32}, ! Handle
  Component Data 1,                       ! Name
  {07faf4a0-c3ad-4562-8553-434026c5a931}, ! UUID
  {d32f757e-882b-4f1c-b56d-0d6f910141dd}, ! Version UUID
  1366307676,                             ! Creation Timestamp
  1366307676,                             ! Version Timestamp
  {d10a8a7b-6d89-4559-a4e0-7d9f3cc9e263}; ! Name of Object 1

