
OS:Version,
  {99ed91df-2808-49fb-8290-bd53ee21f053}, ! Handle
  0.9.3;                                  ! Version Identifier

OS:SizingPeriod:DesignDay,
  {237d9289-43d2-4458-af23-14d7d75c5a50}, ! Handle
  Honolulu Intl Arpt Ann Clg 1% Condns Enth=>MDB, ! Name
  29.1,                                   ! Maximum Dry-Bulb Temperature {C}
  7.1,                                    ! Daily Dry-Bulb Temperature Range {deltaC}
  74200,                                  ! Humidity Indicating Conditions at Maximum Dry-Bulb {BasedOnField A3}
  101301,                                 ! Barometric Pressure {Pa}
  6.7,                                    ! Wind Speed {m/s}
  60,                                     ! Wind Direction {deg}
  0,                                      ! Sky Clearness
  0,                                      ! Rain Indicator
  0,                                      ! Snow Indicator
  21,                                     ! Day of Month
  8,                                      ! Month
  SummerDesignDay,                        ! Day Type
  0,                                      ! Daylight Saving Time Indicator
  Enthalpy,                               ! Humidity Indicating Type
  ,                                       ! Humidity Indicating Day Schedule Name
  DefaultMultipliers,                     ! Dry-Bulb Temperature Range Modifier Type
  ,                                       ! Dry-Bulb Temperature Range Modifier Schedule Name
  ASHRAETau,                              ! Solar Model Indicator
  ,                                       ! Beam Solar Day Schedule Name
  ,                                       ! Diffuse Solar Day Schedule Name
  0.382,                                  ! ASHRAE Taub {dimensionless}
  2.521;                                  ! ASHRAE Taud {dimensionless}

OS:ComponentData,
  {37267afa-1842-4fb6-b35e-8381c645b27e}, ! Handle
  Component Data 1,                       ! Name
  {071d771f-2196-4aa8-9077-554c44ecbb92}, ! UUID
  {439854c9-5d01-4483-a91f-513af3d21cc8}, ! Version UUID
  1366307094,                             ! Creation Timestamp
  1366307094,                             ! Version Timestamp
  {237d9289-43d2-4458-af23-14d7d75c5a50}; ! Name of Object 1

