
OS:Version,
  {e71abc59-3a82-4f5d-af45-b123a62f1448}, ! Handle
  0.9.3;                                  ! Version Identifier

OS:SizingPeriod:DesignDay,
  {0aa02ef9-095f-4bf4-8e3f-aca8543a2ba4}, ! Handle
  Bettles Field Ann Htg Wind 99.6% Condns WS=>MCDB, ! Name
  -13.1,                                  ! Maximum Dry-Bulb Temperature {C}
  0,                                      ! Daily Dry-Bulb Temperature Range {deltaC}
  -13.1,                                  ! Humidity Indicating Conditions at Maximum Dry-Bulb {BasedOnField A3}
  98992,                                  ! Barometric Pressure {Pa}
  9.1,                                    ! Wind Speed {m/s}
  340,                                    ! Wind Direction {deg}
  0,                                      ! Sky Clearness
  0,                                      ! Rain Indicator
  0,                                      ! Snow Indicator
  21,                                     ! Day of Month
  1,                                      ! Month
  WinterDesignDay,                        ! Day Type
  0,                                      ! Daylight Saving Time Indicator
  Wetbulb,                                ! Humidity Indicating Type
  ,                                       ! Humidity Indicating Day Schedule Name
  DefaultMultipliers,                     ! Dry-Bulb Temperature Range Modifier Type
  ,                                       ! Dry-Bulb Temperature Range Modifier Schedule Name
  ASHRAEClearSky;                         ! Solar Model Indicator

OS:ComponentData,
  {08723a94-34ad-40a9-ba56-bc9e9934b163}, ! Handle
  Component Data 1,                       ! Name
  {ee6c85e7-d37b-44dc-8583-b77efcb3a0ee}, ! UUID
  {478a8aa1-c6d8-4515-af7c-4499abf0855a}, ! Version UUID
  1366304766,                             ! Creation Timestamp
  1366304766,                             ! Version Timestamp
  {0aa02ef9-095f-4bf4-8e3f-aca8543a2ba4}; ! Name of Object 1

