
OS:Version,
  {4755732f-2561-4d7c-b317-354797454948}, ! Handle
  0.9.3;                                  ! Version Identifier

OS:SizingPeriod:DesignDay,
  {1e76018a-081d-4c25-aa6b-6bea05191e0f}, ! Handle
  Fosston Awos Ann Hum_n 99% Condns DP=>MCDB, ! Name
  -26.8,                                  ! Maximum Dry-Bulb Temperature {C}
  0,                                      ! Daily Dry-Bulb Temperature Range {deltaC}
  -33,                                    ! Humidity Indicating Conditions at Maximum Dry-Bulb {BasedOnField A3}
  96750,                                  ! Barometric Pressure {Pa}
  1.5,                                    ! Wind Speed {m/s}
  180,                                    ! Wind Direction {deg}
  0,                                      ! Sky Clearness
  0,                                      ! Rain Indicator
  0,                                      ! Snow Indicator
  21,                                     ! Day of Month
  1,                                      ! Month
  WinterDesignDay,                        ! Day Type
  0,                                      ! Daylight Saving Time Indicator
  Dewpoint,                               ! Humidity Indicating Type
  ,                                       ! Humidity Indicating Day Schedule Name
  DefaultMultipliers,                     ! Dry-Bulb Temperature Range Modifier Type
  ,                                       ! Dry-Bulb Temperature Range Modifier Schedule Name
  ASHRAEClearSky;                         ! Solar Model Indicator

OS:ComponentData,
  {3972fda0-0eaf-4352-a7e4-db6cc420631f}, ! Handle
  Component Data 1,                       ! Name
  {ca483fac-9dd7-436d-8a88-98492b7bd0b2}, ! UUID
  {192c5b07-d46e-478d-993e-3f9d0375882c}, ! Version UUID
  1366308237,                             ! Creation Timestamp
  1366308237,                             ! Version Timestamp
  {1e76018a-081d-4c25-aa6b-6bea05191e0f}; ! Name of Object 1

