
OS:Version,
  {683e621a-0dfe-4648-9420-7745545b982d}, ! Handle
  0.9.3;                                  ! Version Identifier

OS:SizingPeriod:DesignDay,
  {ffab2518-8067-4cc6-b7f3-43ef5f4b71e1}, ! Handle
  Clayton Municipal Airpark Ann Clg 2% Condns DP=>MDB, ! Name
  21.1,                                   ! Maximum Dry-Bulb Temperature {C}
  14.7,                                   ! Daily Dry-Bulb Temperature Range {deltaC}
  15.7,                                   ! Humidity Indicating Conditions at Maximum Dry-Bulb {BasedOnField A3}
  84431,                                  ! Barometric Pressure {Pa}
  6.2,                                    ! Wind Speed {m/s}
  190,                                    ! Wind Direction {deg}
  0,                                      ! Sky Clearness
  0,                                      ! Rain Indicator
  0,                                      ! Snow Indicator
  21,                                     ! Day of Month
  7,                                      ! Month
  SummerDesignDay,                        ! Day Type
  0,                                      ! Daylight Saving Time Indicator
  Dewpoint,                               ! Humidity Indicating Type
  ,                                       ! Humidity Indicating Day Schedule Name
  DefaultMultipliers,                     ! Dry-Bulb Temperature Range Modifier Type
  ,                                       ! Dry-Bulb Temperature Range Modifier Schedule Name
  ASHRAETau,                              ! Solar Model Indicator
  ,                                       ! Beam Solar Day Schedule Name
  ,                                       ! Diffuse Solar Day Schedule Name
  0.399,                                  ! ASHRAE Taub {dimensionless}
  2.129;                                  ! ASHRAE Taud {dimensionless}

OS:ComponentData,
  {5be7c33c-3f70-4b52-862c-8d1237ec6828}, ! Handle
  Component Data 1,                       ! Name
  {55add26d-561e-4599-a485-a84d85e43dd4}, ! UUID
  {c71f0a93-b71a-41e7-b442-96e7869f5090}, ! Version UUID
  1366309387,                             ! Creation Timestamp
  1366309387,                             ! Version Timestamp
  {ffab2518-8067-4cc6-b7f3-43ef5f4b71e1}; ! Name of Object 1

