
OS:Version,
  {8b8b98d8-3218-4fc4-9afb-6f6a2ca7588e}, ! Handle
  0.9.3;                                  ! Version Identifier

OS:SizingPeriod:DesignDay,
  {bf57afb5-384f-40d0-8304-46ac26c84067}, ! Handle
  DES_MOINES Ann Clg 1% Condns DB=>MWB,   ! Name
  32.3,                                   ! Maximum Dry-Bulb Temperature {C}
  10.1,                                   ! Daily Dry-Bulb Temperature Range {deltaC}
  23.9,                                   ! Humidity Indicating Conditions at Maximum Dry-Bulb {BasedOnField A3}
  97843,                                  ! Barometric Pressure {Pa}
  5.4,                                    ! Wind Speed {m/s}
  180,                                    ! Wind Direction {deg}
  0,                                      ! Sky Clearness
  0,                                      ! Rain Indicator
  0,                                      ! Snow Indicator
  21,                                     ! Day of Month
  7,                                      ! Month
  SummerDesignDay,                        ! Day Type
  0,                                      ! Daylight Saving Time Indicator
  Wetbulb,                                ! Humidity Indicating Type
  ,                                       ! Humidity Indicating Day Schedule Name
  DefaultMultipliers,                     ! Dry-Bulb Temperature Range Modifier Type
  ,                                       ! Dry-Bulb Temperature Range Modifier Schedule Name
  ASHRAETau,                              ! Solar Model Indicator
  ,                                       ! Beam Solar Day Schedule Name
  ,                                       ! Diffuse Solar Day Schedule Name
  0.425,                                  ! ASHRAE Taub {dimensionless}
  2.17;                                   ! ASHRAE Taud {dimensionless}

OS:ComponentData,
  {7f75691f-d193-4b93-976f-c413fc847315}, ! Handle
  Component Data 1,                       ! Name
  {2fbe1657-0cea-47d0-b0bc-f31c2060379e}, ! UUID
  {4728af9b-08ac-4c96-a830-3931c34876d8}, ! Version UUID
  1366307170,                             ! Creation Timestamp
  1366307170,                             ! Version Timestamp
  {bf57afb5-384f-40d0-8304-46ac26c84067}; ! Name of Object 1

