
OS:Version,
  {a350511f-6fbf-4099-a25f-037a65e0e81f}, ! Handle
  0.9.3;                                  ! Version Identifier

OS:SizingPeriod:DesignDay,
  {ff97b687-90a0-4a59-a73d-d60659354374}, ! Handle
  Harlingen Rio Grande Valley I Ann Clg .4% Condns DP=>MDB, ! Name
  28.7,                                   ! Maximum Dry-Bulb Temperature {C}
  11,                                     ! Daily Dry-Bulb Temperature Range {deltaC}
  26.3,                                   ! Humidity Indicating Conditions at Maximum Dry-Bulb {BasedOnField A3}
  101205,                                 ! Barometric Pressure {Pa}
  7.3,                                    ! Wind Speed {m/s}
  150,                                    ! Wind Direction {deg}
  0,                                      ! Sky Clearness
  0,                                      ! Rain Indicator
  0,                                      ! Snow Indicator
  21,                                     ! Day of Month
  7,                                      ! Month
  SummerDesignDay,                        ! Day Type
  0,                                      ! Daylight Saving Time Indicator
  Dewpoint,                               ! Humidity Indicating Type
  ,                                       ! Humidity Indicating Day Schedule Name
  DefaultMultipliers,                     ! Dry-Bulb Temperature Range Modifier Type
  ,                                       ! Dry-Bulb Temperature Range Modifier Schedule Name
  ASHRAETau,                              ! Solar Model Indicator
  ,                                       ! Beam Solar Day Schedule Name
  ,                                       ! Diffuse Solar Day Schedule Name
  0.46,                                   ! ASHRAE Taub {dimensionless}
  2.113;                                  ! ASHRAE Taud {dimensionless}

OS:ComponentData,
  {72738b13-35bb-4a3d-85ab-53df29cba4c6}, ! Handle
  Component Data 1,                       ! Name
  {11d680d1-cd24-43cf-a03b-7d9472a5cd33}, ! UUID
  {98d1f10b-379c-425d-8e1f-13c9ea464312}, ! Version UUID
  1366310732,                             ! Creation Timestamp
  1366310732,                             ! Version Timestamp
  {ff97b687-90a0-4a59-a73d-d60659354374}; ! Name of Object 1

