
OS:Version,
  {5f2e6128-10e0-4841-bf2f-61fc2b1ec8d3}, ! Handle
  0.9.3;                                  ! Version Identifier

OS:SizingPeriod:DesignDay,
  {69009712-2481-4d3e-bf21-ec2387831aca}, ! Handle
  England Afb Ann Hum_n 99.6% Condns DP=>MCDB, ! Name
  0.7,                                    ! Maximum Dry-Bulb Temperature {C}
  0,                                      ! Daily Dry-Bulb Temperature Range {deltaC}
  -11.1,                                  ! Humidity Indicating Conditions at Maximum Dry-Bulb {BasedOnField A3}
  101001,                                 ! Barometric Pressure {Pa}
  2.3,                                    ! Wind Speed {m/s}
  0,                                      ! Wind Direction {deg}
  0,                                      ! Sky Clearness
  0,                                      ! Rain Indicator
  0,                                      ! Snow Indicator
  21,                                     ! Day of Month
  1,                                      ! Month
  WinterDesignDay,                        ! Day Type
  0,                                      ! Daylight Saving Time Indicator
  Dewpoint,                               ! Humidity Indicating Type
  ,                                       ! Humidity Indicating Day Schedule Name
  DefaultMultipliers,                     ! Dry-Bulb Temperature Range Modifier Type
  ,                                       ! Dry-Bulb Temperature Range Modifier Schedule Name
  ASHRAEClearSky;                         ! Solar Model Indicator

OS:ComponentData,
  {fc7cca05-3c3c-408d-ad76-17cfb6591d89}, ! Handle
  Component Data 1,                       ! Name
  {ab94468a-be39-48fc-b399-debd237f0ace}, ! UUID
  {d26d84af-1853-4a6b-9058-b63bb96e211a}, ! Version UUID
  1366307691,                             ! Creation Timestamp
  1366307691,                             ! Version Timestamp
  {69009712-2481-4d3e-bf21-ec2387831aca}; ! Name of Object 1

