
OS:Version,
  {02bc33bb-3db9-486b-bace-7aebb8fc2e0d}, ! Handle
  0.9.3;                                  ! Version Identifier

OS:SizingPeriod:DesignDay,
  {92331169-674c-46c2-ae0d-a0f2ce345c3b}, ! Handle
  Davis Monthan Afb Ann Clg 1% Condns DP=>MDB, ! Name
  25,                                     ! Maximum Dry-Bulb Temperature {C}
  13.3,                                   ! Daily Dry-Bulb Temperature Range {deltaC}
  20.1,                                   ! Humidity Indicating Conditions at Maximum Dry-Bulb {BasedOnField A3}
  91976,                                  ! Barometric Pressure {Pa}
  4.8,                                    ! Wind Speed {m/s}
  310,                                    ! Wind Direction {deg}
  0,                                      ! Sky Clearness
  0,                                      ! Rain Indicator
  0,                                      ! Snow Indicator
  21,                                     ! Day of Month
  7,                                      ! Month
  SummerDesignDay,                        ! Day Type
  0,                                      ! Daylight Saving Time Indicator
  Dewpoint,                               ! Humidity Indicating Type
  ,                                       ! Humidity Indicating Day Schedule Name
  DefaultMultipliers,                     ! Dry-Bulb Temperature Range Modifier Type
  ,                                       ! Dry-Bulb Temperature Range Modifier Schedule Name
  ASHRAETau,                              ! Solar Model Indicator
  ,                                       ! Beam Solar Day Schedule Name
  ,                                       ! Diffuse Solar Day Schedule Name
  0.555,                                  ! ASHRAE Taub {dimensionless}
  1.729;                                  ! ASHRAE Taud {dimensionless}

OS:ComponentData,
  {eb634237-ca53-4f97-87e6-81e3660e61d2}, ! Handle
  Component Data 1,                       ! Name
  {56f59bf9-6a35-478b-9082-4fa52ac88eeb}, ! UUID
  {eacd809d-c576-485b-8422-a2d9481d1b9e}, ! Version UUID
  1366306264,                             ! Creation Timestamp
  1366306264,                             ! Version Timestamp
  {92331169-674c-46c2-ae0d-a0f2ce345c3b}; ! Name of Object 1

