
OS:Version,
  {c281a4b6-0d59-4b74-9960-7e5f07d4e24a}, ! Handle
  0.9.3;                                  ! Version Identifier

OS:SizingPeriod:DesignDay,
  {82eb7652-8ff1-4d22-a92d-09464ca145e3}, ! Handle
  Davis Monthan Afb Ann Clg 1% Condns DP=>MDB, ! Name
  25,                                     ! Maximum Dry-Bulb Temperature {C}
  13.3,                                   ! Daily Dry-Bulb Temperature Range {deltaC}
  20.1,                                   ! Humidity Indicating Conditions at Maximum Dry-Bulb {BasedOnField A3}
  91976,                                  ! Barometric Pressure {Pa}
  4.8,                                    ! Wind Speed {m/s}
  310,                                    ! Wind Direction {deg}
  0,                                      ! Sky Clearness
  0,                                      ! Rain Indicator
  0,                                      ! Snow Indicator
  21,                                     ! Day of Month
  7,                                      ! Month
  SummerDesignDay,                        ! Day Type
  0,                                      ! Daylight Saving Time Indicator
  Dewpoint,                               ! Humidity Indicating Type
  ,                                       ! Humidity Indicating Day Schedule Name
  DefaultMultipliers,                     ! Dry-Bulb Temperature Range Modifier Type
  ,                                       ! Dry-Bulb Temperature Range Modifier Schedule Name
  ASHRAETau,                              ! Solar Model Indicator
  ,                                       ! Beam Solar Day Schedule Name
  ,                                       ! Diffuse Solar Day Schedule Name
  0.555,                                  ! ASHRAE Taub {dimensionless}
  1.729;                                  ! ASHRAE Taud {dimensionless}

