
OS:Version,
  {f7038541-a0bd-4966-92ef-62661890dddf}, ! Handle
  0.9.3;                                  ! Version Identifier

OS:SizingPeriod:DesignDay,
  {fec3fa09-9da3-408d-8227-8c9c945983e3}, ! Handle
  Hickory Regional Ap Ann Htg Wind 99.6% Condns WS=>MCDB, ! Name
  7,                                      ! Maximum Dry-Bulb Temperature {C}
  0,                                      ! Daily Dry-Bulb Temperature Range {deltaC}
  7,                                      ! Humidity Indicating Conditions at Maximum Dry-Bulb {BasedOnField A3}
  97214,                                  ! Barometric Pressure {Pa}
  9,                                      ! Wind Speed {m/s}
  300,                                    ! Wind Direction {deg}
  0,                                      ! Sky Clearness
  0,                                      ! Rain Indicator
  0,                                      ! Snow Indicator
  21,                                     ! Day of Month
  1,                                      ! Month
  WinterDesignDay,                        ! Day Type
  0,                                      ! Daylight Saving Time Indicator
  Wetbulb,                                ! Humidity Indicating Type
  ,                                       ! Humidity Indicating Day Schedule Name
  DefaultMultipliers,                     ! Dry-Bulb Temperature Range Modifier Type
  ,                                       ! Dry-Bulb Temperature Range Modifier Schedule Name
  ASHRAEClearSky;                         ! Solar Model Indicator

