
OS:Version,
  {9e4d14c7-aedb-45e0-843b-ae6b656df43b}, ! Handle
  0.9.3;                                  ! Version Identifier

OS:SizingPeriod:DesignDay,
  {b3e2e38a-1411-463e-a3b9-030cf5bf6f0b}, ! Handle
  Elmira Corning Regional Ap Ann Clg .4% Condns Enth=>MDB, ! Name
  29.5,                                   ! Maximum Dry-Bulb Temperature {C}
  13,                                     ! Daily Dry-Bulb Temperature Range {deltaC}
  73200,                                  ! Humidity Indicating Conditions at Maximum Dry-Bulb {BasedOnField A3}
  97878,                                  ! Barometric Pressure {Pa}
  4.8,                                    ! Wind Speed {m/s}
  240,                                    ! Wind Direction {deg}
  0,                                      ! Sky Clearness
  0,                                      ! Rain Indicator
  0,                                      ! Snow Indicator
  21,                                     ! Day of Month
  7,                                      ! Month
  SummerDesignDay,                        ! Day Type
  0,                                      ! Daylight Saving Time Indicator
  Enthalpy,                               ! Humidity Indicating Type
  ,                                       ! Humidity Indicating Day Schedule Name
  DefaultMultipliers,                     ! Dry-Bulb Temperature Range Modifier Type
  ,                                       ! Dry-Bulb Temperature Range Modifier Schedule Name
  ASHRAETau,                              ! Solar Model Indicator
  ,                                       ! Beam Solar Day Schedule Name
  ,                                       ! Diffuse Solar Day Schedule Name
  0.471,                                  ! ASHRAE Taub {dimensionless}
  1.96;                                   ! ASHRAE Taud {dimensionless}

