
OS:Version,
  {dd28be6a-e8a5-4617-adf8-2afd34d0f95a}, ! Handle
  0.9.3;                                  ! Version Identifier

OS:SizingPeriod:DesignDay,
  {5fd51717-690c-4f0a-b9c4-a88d6f13bbf9}, ! Handle
  ASHEVILLE Ann Htg Wind 99% Condns WS=>MCDB, ! Name
  -2.6,                                   ! Maximum Dry-Bulb Temperature {C}
  0,                                      ! Daily Dry-Bulb Temperature Range {deltaC}
  -2.6,                                   ! Humidity Indicating Conditions at Maximum Dry-Bulb {BasedOnField A3}
  93632,                                  ! Barometric Pressure {Pa}
  11.5,                                   ! Wind Speed {m/s}
  340,                                    ! Wind Direction {deg}
  0,                                      ! Sky Clearness
  0,                                      ! Rain Indicator
  0,                                      ! Snow Indicator
  21,                                     ! Day of Month
  1,                                      ! Month
  WinterDesignDay,                        ! Day Type
  0,                                      ! Daylight Saving Time Indicator
  Wetbulb,                                ! Humidity Indicating Type
  ,                                       ! Humidity Indicating Day Schedule Name
  DefaultMultipliers,                     ! Dry-Bulb Temperature Range Modifier Type
  ,                                       ! Dry-Bulb Temperature Range Modifier Schedule Name
  ASHRAEClearSky;                         ! Solar Model Indicator

OS:ComponentData,
  {77570606-fea7-4973-9578-c017381195ed}, ! Handle
  Component Data 1,                       ! Name
  {b52f4341-a92d-4ea2-a5ef-086180b67ab8}, ! UUID
  {fac2175f-f992-472e-911a-ac5d54fcf2b9}, ! Version UUID
  1366308859,                             ! Creation Timestamp
  1366308859,                             ! Version Timestamp
  {5fd51717-690c-4f0a-b9c4-a88d6f13bbf9}; ! Name of Object 1

