
OS:Version,
  {258f479c-f2ba-4024-956a-fe0991c95045}, ! Handle
  0.9.3;                                  ! Version Identifier

OS:SizingPeriod:DesignDay,
  {0bd15dec-ade1-49aa-a851-d4b2ea0ed044}, ! Handle
  Kearney Muni  Awos Ann Clg 1% Condns DP=>MDB, ! Name
  27.6,                                   ! Maximum Dry-Bulb Temperature {C}
  12.2,                                   ! Daily Dry-Bulb Temperature Range {deltaC}
  21.4,                                   ! Humidity Indicating Conditions at Maximum Dry-Bulb {BasedOnField A3}
  93767,                                  ! Barometric Pressure {Pa}
  6.4,                                    ! Wind Speed {m/s}
  190,                                    ! Wind Direction {deg}
  0,                                      ! Sky Clearness
  0,                                      ! Rain Indicator
  0,                                      ! Snow Indicator
  21,                                     ! Day of Month
  7,                                      ! Month
  SummerDesignDay,                        ! Day Type
  0,                                      ! Daylight Saving Time Indicator
  Dewpoint,                               ! Humidity Indicating Type
  ,                                       ! Humidity Indicating Day Schedule Name
  DefaultMultipliers,                     ! Dry-Bulb Temperature Range Modifier Type
  ,                                       ! Dry-Bulb Temperature Range Modifier Schedule Name
  ASHRAETau,                              ! Solar Model Indicator
  ,                                       ! Beam Solar Day Schedule Name
  ,                                       ! Diffuse Solar Day Schedule Name
  0.404,                                  ! ASHRAE Taub {dimensionless}
  2.221;                                  ! ASHRAE Taud {dimensionless}

OS:ComponentData,
  {f80c1cf0-2a91-4a58-bf3a-a4f74413a8c1}, ! Handle
  Component Data 1,                       ! Name
  {3578af9a-feac-477f-8cff-584b2189c1fc}, ! UUID
  {486c88cc-8db4-4ec2-bc63-6fd0ba28c280}, ! Version UUID
  1366309136,                             ! Creation Timestamp
  1366309136,                             ! Version Timestamp
  {0bd15dec-ade1-49aa-a851-d4b2ea0ed044}; ! Name of Object 1

