
OS:Version,
  {8a0f9500-7775-4db5-a400-a91a9cd531bb}, ! Handle
  0.9.3;                                  ! Version Identifier

OS:SizingPeriod:DesignDay,
  {8d1a4b99-460a-427e-81dc-55bffdb6157f}, ! Handle
  King Salmon Arpt Ann Clg .4% Condns Enth=>MDB, ! Name
  20.7,                                   ! Maximum Dry-Bulb Temperature {C}
  8.6,                                    ! Daily Dry-Bulb Temperature Range {deltaC}
  44200,                                  ! Humidity Indicating Conditions at Maximum Dry-Bulb {BasedOnField A3}
  101145,                                 ! Barometric Pressure {Pa}
  4.8,                                    ! Wind Speed {m/s}
  270,                                    ! Wind Direction {deg}
  0,                                      ! Sky Clearness
  0,                                      ! Rain Indicator
  0,                                      ! Snow Indicator
  21,                                     ! Day of Month
  7,                                      ! Month
  SummerDesignDay,                        ! Day Type
  0,                                      ! Daylight Saving Time Indicator
  Enthalpy,                               ! Humidity Indicating Type
  ,                                       ! Humidity Indicating Day Schedule Name
  DefaultMultipliers,                     ! Dry-Bulb Temperature Range Modifier Type
  ,                                       ! Dry-Bulb Temperature Range Modifier Schedule Name
  ASHRAETau,                              ! Solar Model Indicator
  ,                                       ! Beam Solar Day Schedule Name
  ,                                       ! Diffuse Solar Day Schedule Name
  0.384,                                  ! ASHRAE Taub {dimensionless}
  2.227;                                  ! ASHRAE Taud {dimensionless}

OS:ComponentData,
  {f4544024-1178-4303-84de-d32f81eb3a71}, ! Handle
  Component Data 1,                       ! Name
  {15671d36-f3dc-4578-a5d9-cd96d605e72c}, ! UUID
  {c8e770a3-b4e5-4f9c-a5c7-19d53441bda6}, ! Version UUID
  1366305367,                             ! Creation Timestamp
  1366305367,                             ! Version Timestamp
  {8d1a4b99-460a-427e-81dc-55bffdb6157f}; ! Name of Object 1

