
OS:Version,
  {2dd3a970-1585-4afd-b035-f7826cb09f75}, ! Handle
  0.9.3;                                  ! Version Identifier

OS:SizingPeriod:DesignDay,
  {257b75b4-d562-488f-b2da-1558b62f8131}, ! Handle
  Las Vegas/Int'l Airpor Ann Htg Wind 99.6% Condns WS=>MCDB, ! Name
  9.2,                                    ! Maximum Dry-Bulb Temperature {C}
  0,                                      ! Daily Dry-Bulb Temperature Range {deltaC}
  9.2,                                    ! Humidity Indicating Conditions at Maximum Dry-Bulb {BasedOnField A3}
  93598,                                  ! Barometric Pressure {Pa}
  12.9,                                   ! Wind Speed {m/s}
  240,                                    ! Wind Direction {deg}
  0,                                      ! Sky Clearness
  0,                                      ! Rain Indicator
  0,                                      ! Snow Indicator
  21,                                     ! Day of Month
  12,                                     ! Month
  WinterDesignDay,                        ! Day Type
  0,                                      ! Daylight Saving Time Indicator
  Wetbulb,                                ! Humidity Indicating Type
  ,                                       ! Humidity Indicating Day Schedule Name
  DefaultMultipliers,                     ! Dry-Bulb Temperature Range Modifier Type
  ,                                       ! Dry-Bulb Temperature Range Modifier Schedule Name
  ASHRAEClearSky;                         ! Solar Model Indicator

OS:ComponentData,
  {90c6ce54-47ca-4a28-b609-e65fb02cf495}, ! Handle
  Component Data 1,                       ! Name
  {872e651c-cfd7-4229-9967-0d112c3af0e5}, ! UUID
  {33c4cad9-4ed3-49e9-bb92-ac5927540b5f}, ! Version UUID
  1366309496,                             ! Creation Timestamp
  1366309496,                             ! Version Timestamp
  {257b75b4-d562-488f-b2da-1558b62f8131}; ! Name of Object 1

