
OS:Version,
  {4a246a7e-3d5e-4d25-8e51-5bb53e39e607}, ! Handle
  0.9.3;                                  ! Version Identifier

OS:SizingPeriod:DesignDay,
  {3b961393-397f-4581-a968-1e4f1db4c5c6}, ! Handle
  Lufkin Angelina Co Ann Htg 99.6% Condns DB, ! Name
  -3.7,                                   ! Maximum Dry-Bulb Temperature {C}
  0,                                      ! Daily Dry-Bulb Temperature Range {deltaC}
  -3.7,                                   ! Humidity Indicating Conditions at Maximum Dry-Bulb {BasedOnField A3}
  100296,                                 ! Barometric Pressure {Pa}
  2.1,                                    ! Wind Speed {m/s}
  340,                                    ! Wind Direction {deg}
  0,                                      ! Sky Clearness
  0,                                      ! Rain Indicator
  0,                                      ! Snow Indicator
  21,                                     ! Day of Month
  1,                                      ! Month
  WinterDesignDay,                        ! Day Type
  0,                                      ! Daylight Saving Time Indicator
  Wetbulb,                                ! Humidity Indicating Type
  ,                                       ! Humidity Indicating Day Schedule Name
  DefaultMultipliers,                     ! Dry-Bulb Temperature Range Modifier Type
  ,                                       ! Dry-Bulb Temperature Range Modifier Schedule Name
  ASHRAEClearSky;                         ! Solar Model Indicator

OS:ComponentData,
  {dffa6f31-dcc0-4a4c-9caf-c35c52cabdf5}, ! Handle
  Component Data 1,                       ! Name
  {75bff6c2-f9e6-4d55-89b0-bc64ddd1ba6e}, ! UUID
  {544d3857-ebd2-43ad-98b5-22c58ace3d64}, ! Version UUID
  1366310806,                             ! Creation Timestamp
  1366310806,                             ! Version Timestamp
  {3b961393-397f-4581-a968-1e4f1db4c5c6}; ! Name of Object 1

