
OS:Version,
  {bcf9ab8d-20cd-40d4-a4c7-1a659c164b00}, ! Handle
  0.9.3;                                  ! Version Identifier

OS:SizingPeriod:DesignDay,
  {af738286-0a94-49a1-8bde-a91070552a13}, ! Handle
  Craig Moffat Ann Clg .4% Condns WB=>MDB, ! Name
  26.9,                                   ! Maximum Dry-Bulb Temperature {C}
  20.7,                                   ! Daily Dry-Bulb Temperature Range {deltaC}
  16.3,                                   ! Humidity Indicating Conditions at Maximum Dry-Bulb {BasedOnField A3}
  80338,                                  ! Barometric Pressure {Pa}
  3.8,                                    ! Wind Speed {m/s}
  290,                                    ! Wind Direction {deg}
  0,                                      ! Sky Clearness
  0,                                      ! Rain Indicator
  0,                                      ! Snow Indicator
  21,                                     ! Day of Month
  7,                                      ! Month
  SummerDesignDay,                        ! Day Type
  0,                                      ! Daylight Saving Time Indicator
  Wetbulb,                                ! Humidity Indicating Type
  ,                                       ! Humidity Indicating Day Schedule Name
  DefaultMultipliers,                     ! Dry-Bulb Temperature Range Modifier Type
  ,                                       ! Dry-Bulb Temperature Range Modifier Schedule Name
  ASHRAETau,                              ! Solar Model Indicator
  ,                                       ! Beam Solar Day Schedule Name
  ,                                       ! Diffuse Solar Day Schedule Name
  0.372,                                  ! ASHRAE Taub {dimensionless}
  2.215;                                  ! ASHRAE Taud {dimensionless}

OS:ComponentData,
  {608ebf8a-6717-43b6-bf6a-122bf20313dd}, ! Handle
  Component Data 1,                       ! Name
  {d3758d0f-6b95-4e33-9216-ce333b265d3d}, ! UUID
  {0e94b77c-ba36-49d4-bb6d-47e41672f6e1}, ! Version UUID
  1366306671,                             ! Creation Timestamp
  1366306671,                             ! Version Timestamp
  {af738286-0a94-49a1-8bde-a91070552a13}; ! Name of Object 1

