
OS:Version,
  {9c547b85-ae53-44a2-8f1c-15cf713ce3a5}, ! Handle
  0.9.3;                                  ! Version Identifier

OS:SizingPeriod:DesignDay,
  {f7c4550b-97f3-49fb-8199-d5400585ef48}, ! Handle
  Benton Harbor Ross Ann Htg 99.6% Condns DB, ! Name
  -13.8,                                  ! Maximum Dry-Bulb Temperature {C}
  0,                                      ! Daily Dry-Bulb Temperature Range {deltaC}
  -13.8,                                  ! Humidity Indicating Conditions at Maximum Dry-Bulb {BasedOnField A3}
  98992,                                  ! Barometric Pressure {Pa}
  3.8,                                    ! Wind Speed {m/s}
  150,                                    ! Wind Direction {deg}
  0,                                      ! Sky Clearness
  0,                                      ! Rain Indicator
  0,                                      ! Snow Indicator
  21,                                     ! Day of Month
  1,                                      ! Month
  WinterDesignDay,                        ! Day Type
  0,                                      ! Daylight Saving Time Indicator
  Wetbulb,                                ! Humidity Indicating Type
  ,                                       ! Humidity Indicating Day Schedule Name
  DefaultMultipliers,                     ! Dry-Bulb Temperature Range Modifier Type
  ,                                       ! Dry-Bulb Temperature Range Modifier Schedule Name
  ASHRAEClearSky;                         ! Solar Model Indicator

OS:ComponentData,
  {a7819a60-f474-4b10-a989-4dae261a4172}, ! Handle
  Component Data 1,                       ! Name
  {f222f860-f86d-4fd3-8e3a-15fb943bee2e}, ! UUID
  {422657ce-45ed-4625-8746-e4ac889ff8a2}, ! Version UUID
  1366307954,                             ! Creation Timestamp
  1366307954,                             ! Version Timestamp
  {f7c4550b-97f3-49fb-8199-d5400585ef48}; ! Name of Object 1

