
OS:Version,
  {84cca949-18d3-4368-b232-68066e7f800f}, ! Handle
  0.9.3;                                  ! Version Identifier

OS:SizingPeriod:DesignDay,
  {9e06f026-9a33-45c5-9572-85ed3721389c}, ! Handle
  Boise Air Terminal  Uo Ann Clg 2% Condns Enth=>MDB, ! Name
  31,                                     ! Maximum Dry-Bulb Temperature {C}
  16.7,                                   ! Daily Dry-Bulb Temperature Range {deltaC}
  52300,                                  ! Humidity Indicating Conditions at Maximum Dry-Bulb {BasedOnField A3}
  93182,                                  ! Barometric Pressure {Pa}
  4.2,                                    ! Wind Speed {m/s}
  330,                                    ! Wind Direction {deg}
  0,                                      ! Sky Clearness
  0,                                      ! Rain Indicator
  0,                                      ! Snow Indicator
  21,                                     ! Day of Month
  7,                                      ! Month
  SummerDesignDay,                        ! Day Type
  0,                                      ! Daylight Saving Time Indicator
  Enthalpy,                               ! Humidity Indicating Type
  ,                                       ! Humidity Indicating Day Schedule Name
  DefaultMultipliers,                     ! Dry-Bulb Temperature Range Modifier Type
  ,                                       ! Dry-Bulb Temperature Range Modifier Schedule Name
  ASHRAETau,                              ! Solar Model Indicator
  ,                                       ! Beam Solar Day Schedule Name
  ,                                       ! Diffuse Solar Day Schedule Name
  0.398,                                  ! ASHRAE Taub {dimensionless}
  2.125;                                  ! ASHRAE Taud {dimensionless}

OS:ComponentData,
  {56f8394a-0c62-4498-8d1d-4692798cfba8}, ! Handle
  Component Data 1,                       ! Name
  {c4f08294-4ef4-4f76-a719-5c1b3fe4255b}, ! UUID
  {4d17e58f-166a-4b1f-99ea-4f4ce0c8f9c3}, ! Version UUID
  1366307271,                             ! Creation Timestamp
  1366307271,                             ! Version Timestamp
  {9e06f026-9a33-45c5-9572-85ed3721389c}; ! Name of Object 1

