
OS:Version,
  {205dea3b-6590-426a-8773-41cad9052c99}, ! Handle
  0.9.3;                                  ! Version Identifier

OS:SizingPeriod:DesignDay,
  {ca2e1c69-7f57-430f-9b50-3274e0fbb823}, ! Handle
  Flint Bishop Intl Arpt Ann Clg 2% Condns DP=>MDB, ! Name
  25.3,                                   ! Maximum Dry-Bulb Temperature {C}
  11.7,                                   ! Daily Dry-Bulb Temperature Range {deltaC}
  21.2,                                   ! Humidity Indicating Conditions at Maximum Dry-Bulb {BasedOnField A3}
  98545,                                  ! Barometric Pressure {Pa}
  5.3,                                    ! Wind Speed {m/s}
  250,                                    ! Wind Direction {deg}
  0,                                      ! Sky Clearness
  0,                                      ! Rain Indicator
  0,                                      ! Snow Indicator
  21,                                     ! Day of Month
  7,                                      ! Month
  SummerDesignDay,                        ! Day Type
  0,                                      ! Daylight Saving Time Indicator
  Dewpoint,                               ! Humidity Indicating Type
  ,                                       ! Humidity Indicating Day Schedule Name
  DefaultMultipliers,                     ! Dry-Bulb Temperature Range Modifier Type
  ,                                       ! Dry-Bulb Temperature Range Modifier Schedule Name
  ASHRAETau,                              ! Solar Model Indicator
  ,                                       ! Beam Solar Day Schedule Name
  ,                                       ! Diffuse Solar Day Schedule Name
  0.449,                                  ! ASHRAE Taub {dimensionless}
  2.044;                                  ! ASHRAE Taud {dimensionless}

OS:ComponentData,
  {a1aaaa52-1a35-44b2-b0ef-adf4e03fbdc7}, ! Handle
  Component Data 1,                       ! Name
  {ad754245-f806-4d59-83c6-9a62319b4cbc}, ! UUID
  {3fc0e8bb-e772-4f34-ada7-73f6650e7ab9}, ! Version UUID
  1366308000,                             ! Creation Timestamp
  1366308000,                             ! Version Timestamp
  {ca2e1c69-7f57-430f-9b50-3274e0fbb823}; ! Name of Object 1

