
OS:Version,
  {d5cb47fb-d06b-4696-9535-e0881aefd3f3}, ! Handle
  0.9.3;                                  ! Version Identifier

OS:SizingPeriod:DesignDay,
  {c71df890-1030-48cf-a1f8-41affa8139dd}, ! Handle
  Blythe Riverside Co Arpt Ann Clg .4% Condns DP=>MDB, ! Name
  30.8,                                   ! Maximum Dry-Bulb Temperature {C}
  14.6,                                   ! Daily Dry-Bulb Temperature Range {deltaC}
  22.9,                                   ! Humidity Indicating Conditions at Maximum Dry-Bulb {BasedOnField A3}
  99904,                                  ! Barometric Pressure {Pa}
  4.8,                                    ! Wind Speed {m/s}
  170,                                    ! Wind Direction {deg}
  0,                                      ! Sky Clearness
  0,                                      ! Rain Indicator
  0,                                      ! Snow Indicator
  21,                                     ! Day of Month
  7,                                      ! Month
  SummerDesignDay,                        ! Day Type
  0,                                      ! Daylight Saving Time Indicator
  Dewpoint,                               ! Humidity Indicating Type
  ,                                       ! Humidity Indicating Day Schedule Name
  DefaultMultipliers,                     ! Dry-Bulb Temperature Range Modifier Type
  ,                                       ! Dry-Bulb Temperature Range Modifier Schedule Name
  ASHRAETau,                              ! Solar Model Indicator
  ,                                       ! Beam Solar Day Schedule Name
  ,                                       ! Diffuse Solar Day Schedule Name
  0.56,                                   ! ASHRAE Taub {dimensionless}
  1.707;                                  ! ASHRAE Taud {dimensionless}

OS:ComponentData,
  {2f55392b-33ba-4d02-ad8c-edfb3ef000e2}, ! Handle
  Component Data 1,                       ! Name
  {dd2757ea-2250-44be-a861-68838c174ef7}, ! UUID
  {ba74ab91-2a61-42e5-b675-5da4440dbe82}, ! Version UUID
  1366306390,                             ! Creation Timestamp
  1366306390,                             ! Version Timestamp
  {c71df890-1030-48cf-a1f8-41affa8139dd}; ! Name of Object 1

