
OS:Version,
  {f9545d2b-a1ad-425d-8d21-79dbae4e573f}, ! Handle
  0.9.3;                                  ! Version Identifier

OS:SizingPeriod:DesignDay,
  {6cce84db-bfaf-4b3e-8a6d-32319614ceee}, ! Handle
  Davis Monthan Afb Ann Clg .4% Condns WB=>MDB, ! Name
  29.5,                                   ! Maximum Dry-Bulb Temperature {C}
  13.3,                                   ! Daily Dry-Bulb Temperature Range {deltaC}
  22.7,                                   ! Humidity Indicating Conditions at Maximum Dry-Bulb {BasedOnField A3}
  91976,                                  ! Barometric Pressure {Pa}
  4.8,                                    ! Wind Speed {m/s}
  310,                                    ! Wind Direction {deg}
  0,                                      ! Sky Clearness
  0,                                      ! Rain Indicator
  0,                                      ! Snow Indicator
  21,                                     ! Day of Month
  7,                                      ! Month
  SummerDesignDay,                        ! Day Type
  0,                                      ! Daylight Saving Time Indicator
  Wetbulb,                                ! Humidity Indicating Type
  ,                                       ! Humidity Indicating Day Schedule Name
  DefaultMultipliers,                     ! Dry-Bulb Temperature Range Modifier Type
  ,                                       ! Dry-Bulb Temperature Range Modifier Schedule Name
  ASHRAETau,                              ! Solar Model Indicator
  ,                                       ! Beam Solar Day Schedule Name
  ,                                       ! Diffuse Solar Day Schedule Name
  0.555,                                  ! ASHRAE Taub {dimensionless}
  1.729;                                  ! ASHRAE Taud {dimensionless}

OS:ComponentData,
  {9f8bee23-eadf-4878-a506-0ac6ecdf0f9a}, ! Handle
  Component Data 1,                       ! Name
  {d46cad1d-f337-48c0-a20c-aad051e00ed1}, ! UUID
  {c1456f64-e600-4d2c-a2bd-93aa7173b1e0}, ! Version UUID
  1366306263,                             ! Creation Timestamp
  1366306263,                             ! Version Timestamp
  {6cce84db-bfaf-4b3e-8a6d-32319614ceee}; ! Name of Object 1

