
OS:Version,
  {ae7ad3e7-fbc6-4715-a09f-5735169de8eb}, ! Handle
  0.9.3;                                  ! Version Identifier

OS:SizingPeriod:DesignDay,
  {1464dca6-5b48-4fb1-9f1b-095d18c727c2}, ! Handle
  Fresno Ann Clg .4% Condns Enth=>MDB,    ! Name
  36.7,                                   ! Maximum Dry-Bulb Temperature {C}
  16.4,                                   ! Daily Dry-Bulb Temperature Range {deltaC}
  69000,                                  ! Humidity Indicating Conditions at Maximum Dry-Bulb {BasedOnField A3}
  100129,                                 ! Barometric Pressure {Pa}
  3.7,                                    ! Wind Speed {m/s}
  300,                                    ! Wind Direction {deg}
  0,                                      ! Sky Clearness
  0,                                      ! Rain Indicator
  0,                                      ! Snow Indicator
  21,                                     ! Day of Month
  7,                                      ! Month
  SummerDesignDay,                        ! Day Type
  0,                                      ! Daylight Saving Time Indicator
  Enthalpy,                               ! Humidity Indicating Type
  ,                                       ! Humidity Indicating Day Schedule Name
  DefaultMultipliers,                     ! Dry-Bulb Temperature Range Modifier Type
  ,                                       ! Dry-Bulb Temperature Range Modifier Schedule Name
  ASHRAETau,                              ! Solar Model Indicator
  ,                                       ! Beam Solar Day Schedule Name
  ,                                       ! Diffuse Solar Day Schedule Name
  0.428,                                  ! ASHRAE Taub {dimensionless}
  2.152;                                  ! ASHRAE Taud {dimensionless}

OS:ComponentData,
  {11a601b5-b89f-45b7-971e-e6851ed76540}, ! Handle
  Component Data 1,                       ! Name
  {93d66950-3ac6-43ae-afa7-ad3db0b5b0b8}, ! UUID
  {a8744a57-3325-4382-ad74-cc296eebd8ac}, ! Version UUID
  1366306437,                             ! Creation Timestamp
  1366306437,                             ! Version Timestamp
  {1464dca6-5b48-4fb1-9f1b-095d18c727c2}; ! Name of Object 1

