
OS:Version,
  {210c5666-3f17-4c71-895c-0e932b4cb7e8}, ! Handle
  0.9.3;                                  ! Version Identifier

OS:SizingPeriod:DesignDay,
  {5ec5fa95-71f8-432f-b9c7-9bc67cc7f82b}, ! Handle
  Devils Lake Awos Ann Hum_n 99.6% Condns DP=>MCDB, ! Name
  -27.1,                                  ! Maximum Dry-Bulb Temperature {C}
  0,                                      ! Daily Dry-Bulb Temperature Range {deltaC}
  -33.4,                                  ! Humidity Indicating Conditions at Maximum Dry-Bulb {BasedOnField A3}
  96115,                                  ! Barometric Pressure {Pa}
  3.5,                                    ! Wind Speed {m/s}
  300,                                    ! Wind Direction {deg}
  0,                                      ! Sky Clearness
  0,                                      ! Rain Indicator
  0,                                      ! Snow Indicator
  21,                                     ! Day of Month
  1,                                      ! Month
  WinterDesignDay,                        ! Day Type
  0,                                      ! Daylight Saving Time Indicator
  Dewpoint,                               ! Humidity Indicating Type
  ,                                       ! Humidity Indicating Day Schedule Name
  DefaultMultipliers,                     ! Dry-Bulb Temperature Range Modifier Type
  ,                                       ! Dry-Bulb Temperature Range Modifier Schedule Name
  ASHRAEClearSky;                         ! Solar Model Indicator

OS:ComponentData,
  {f6532f60-25b3-4e2a-a39e-c83b319b884c}, ! Handle
  Component Data 1,                       ! Name
  {c3c7d1dd-ec7d-4c15-a7ad-31dc6e4b2123}, ! UUID
  {5ce78c89-6333-4ac5-aadc-85d609a3a018}, ! Version UUID
  1366309010,                             ! Creation Timestamp
  1366309010,                             ! Version Timestamp
  {5ec5fa95-71f8-432f-b9c7-9bc67cc7f82b}; ! Name of Object 1

