
OS:Version,
  {e5590b99-320d-43d8-8424-5b40dfed9578}, ! Handle
  0.9.3;                                  ! Version Identifier

OS:SizingPeriod:DesignDay,
  {0d635a7c-c30c-4874-afff-803409523c6b}, ! Handle
  Joslin Fld Magic Va  Twin Fal Ann Clg 1% Condns WB=>MDB, ! Name
  30.5,                                   ! Maximum Dry-Bulb Temperature {C}
  15.7,                                   ! Daily Dry-Bulb Temperature Range {deltaC}
  18.5,                                   ! Humidity Indicating Conditions at Maximum Dry-Bulb {BasedOnField A3}
  87716,                                  ! Barometric Pressure {Pa}
  4,                                      ! Wind Speed {m/s}
  320,                                    ! Wind Direction {deg}
  0,                                      ! Sky Clearness
  0,                                      ! Rain Indicator
  0,                                      ! Snow Indicator
  21,                                     ! Day of Month
  7,                                      ! Month
  SummerDesignDay,                        ! Day Type
  0,                                      ! Daylight Saving Time Indicator
  Wetbulb,                                ! Humidity Indicating Type
  ,                                       ! Humidity Indicating Day Schedule Name
  DefaultMultipliers,                     ! Dry-Bulb Temperature Range Modifier Type
  ,                                       ! Dry-Bulb Temperature Range Modifier Schedule Name
  ASHRAETau,                              ! Solar Model Indicator
  ,                                       ! Beam Solar Day Schedule Name
  ,                                       ! Diffuse Solar Day Schedule Name
  0.42,                                   ! ASHRAE Taub {dimensionless}
  1.979;                                  ! ASHRAE Taud {dimensionless}

OS:ComponentData,
  {47282e02-b804-441a-b10a-12fa412afa68}, ! Handle
  Component Data 1,                       ! Name
  {51efc9ba-c754-4374-a526-6d6b8146833e}, ! UUID
  {8bcb3825-a8dc-4abf-805c-265eaa6ba30b}, ! Version UUID
  1366307316,                             ! Creation Timestamp
  1366307316,                             ! Version Timestamp
  {0d635a7c-c30c-4874-afff-803409523c6b}; ! Name of Object 1

