
OS:Version,
  {bbb1e227-cc25-4f09-8b10-6c5de8a06303}, ! Handle
  0.9.3;                                  ! Version Identifier

OS:SizingPeriod:DesignDay,
  {cc843e8b-c240-4699-a389-f02ea5183b99}, ! Handle
  LITTLE_ROCK Ann Clg 1% Condns DP=>MDB,  ! Name
  29.1,                                   ! Maximum Dry-Bulb Temperature {C}
  11.1,                                   ! Daily Dry-Bulb Temperature Range {deltaC}
  25.2,                                   ! Humidity Indicating Conditions at Maximum Dry-Bulb {BasedOnField A3}
  100356,                                 ! Barometric Pressure {Pa}
  3.5,                                    ! Wind Speed {m/s}
  190,                                    ! Wind Direction {deg}
  0,                                      ! Sky Clearness
  0,                                      ! Rain Indicator
  0,                                      ! Snow Indicator
  21,                                     ! Day of Month
  7,                                      ! Month
  SummerDesignDay,                        ! Day Type
  0,                                      ! Daylight Saving Time Indicator
  Dewpoint,                               ! Humidity Indicating Type
  ,                                       ! Humidity Indicating Day Schedule Name
  DefaultMultipliers,                     ! Dry-Bulb Temperature Range Modifier Type
  ,                                       ! Dry-Bulb Temperature Range Modifier Schedule Name
  ASHRAETau,                              ! Solar Model Indicator
  ,                                       ! Beam Solar Day Schedule Name
  ,                                       ! Diffuse Solar Day Schedule Name
  0.512,                                  ! ASHRAE Taub {dimensionless}
  1.909;                                  ! ASHRAE Taud {dimensionless}

OS:ComponentData,
  {5a28b20c-fdd5-4906-8ca7-65fd3fc49a23}, ! Handle
  Component Data 1,                       ! Name
  {5592a5db-6f50-43b3-aa52-0c8f10ea334a}, ! UUID
  {edaaf99f-e253-4579-98c4-d8ab9cbbba32}, ! Version UUID
  1366306232,                             ! Creation Timestamp
  1366306232,                             ! Version Timestamp
  {cc843e8b-c240-4699-a389-f02ea5183b99}; ! Name of Object 1

