
OS:Version,
  {3a757622-6c8f-4778-ad29-59fa7690ec25}, ! Handle
  0.9.3;                                  ! Version Identifier

OS:SizingPeriod:DesignDay,
  {548d9925-9e1a-4385-b249-324ea1841cae}, ! Handle
  Anaktuvuk Pass Ann Clg 1% Condns DB=>MWB, ! Name
  19.1,                                   ! Maximum Dry-Bulb Temperature {C}
  9.1,                                    ! Daily Dry-Bulb Temperature Range {deltaC}
  11.4,                                   ! Humidity Indicating Conditions at Maximum Dry-Bulb {BasedOnField A3}
  93677,                                  ! Barometric Pressure {Pa}
  3.6,                                    ! Wind Speed {m/s}
  40,                                     ! Wind Direction {deg}
  0,                                      ! Sky Clearness
  0,                                      ! Rain Indicator
  0,                                      ! Snow Indicator
  21,                                     ! Day of Month
  7,                                      ! Month
  SummerDesignDay,                        ! Day Type
  0,                                      ! Daylight Saving Time Indicator
  Wetbulb,                                ! Humidity Indicating Type
  ,                                       ! Humidity Indicating Day Schedule Name
  DefaultMultipliers,                     ! Dry-Bulb Temperature Range Modifier Type
  ,                                       ! Dry-Bulb Temperature Range Modifier Schedule Name
  ASHRAETau,                              ! Solar Model Indicator
  ,                                       ! Beam Solar Day Schedule Name
  ,                                       ! Diffuse Solar Day Schedule Name
  0.361,                                  ! ASHRAE Taub {dimensionless}
  2.199;                                  ! ASHRAE Taud {dimensionless}

OS:ComponentData,
  {11bd21f4-8673-4197-9ef7-19c1434aec28}, ! Handle
  Component Data 1,                       ! Name
  {68999db9-72fe-4905-a2bf-835123966d3f}, ! UUID
  {6248f780-d70b-44bd-ae59-08d61bc6c88d}, ! Version UUID
  1366304689,                             ! Creation Timestamp
  1366304689,                             ! Version Timestamp
  {548d9925-9e1a-4385-b249-324ea1841cae}; ! Name of Object 1

