
OS:Version,
  {77a6ba10-475f-491d-b438-210d5923e6c4}, ! Handle
  0.9.3;                                  ! Version Identifier

OS:SizingPeriod:DesignDay,
  {e714a3b5-0bf3-4ca2-92bb-b6f032c8a61d}, ! Handle
  ATLANTIC_CITY Ann Hum_n 99% Condns DP=>MCDB, ! Name
  -7.2,                                   ! Maximum Dry-Bulb Temperature {C}
  0,                                      ! Daily Dry-Bulb Temperature Range {deltaC}
  -17.2,                                  ! Humidity Indicating Conditions at Maximum Dry-Bulb {BasedOnField A3}
  101085,                                 ! Barometric Pressure {Pa}
  3.5,                                    ! Wind Speed {m/s}
  290,                                    ! Wind Direction {deg}
  0,                                      ! Sky Clearness
  0,                                      ! Rain Indicator
  0,                                      ! Snow Indicator
  21,                                     ! Day of Month
  1,                                      ! Month
  WinterDesignDay,                        ! Day Type
  0,                                      ! Daylight Saving Time Indicator
  Dewpoint,                               ! Humidity Indicating Type
  ,                                       ! Humidity Indicating Day Schedule Name
  DefaultMultipliers,                     ! Dry-Bulb Temperature Range Modifier Type
  ,                                       ! Dry-Bulb Temperature Range Modifier Schedule Name
  ASHRAEClearSky;                         ! Solar Model Indicator

OS:ComponentData,
  {b1a8dd0d-659f-4df1-8517-a55123dd8a79}, ! Handle
  Component Data 1,                       ! Name
  {502799c8-b116-4230-95f1-122322710178}, ! UUID
  {2012306d-dcb7-4647-9435-749954871314}, ! Version UUID
  1366309281,                             ! Creation Timestamp
  1366309281,                             ! Version Timestamp
  {e714a3b5-0bf3-4ca2-92bb-b6f032c8a61d}; ! Name of Object 1

