
OS:Version,
  {fb75b78b-ba75-4e6e-a4c2-6aa7ac60963e}, ! Handle
  0.9.3;                                  ! Version Identifier

OS:SizingPeriod:DesignDay,
  {2b3966ca-e92f-4bb1-af63-50a7ba92ef42}, ! Handle
  KAHULUI Ann Clg 1% Condns WB=>MDB,      ! Name
  29.3,                                   ! Maximum Dry-Bulb Temperature {C}
  8.3,                                    ! Daily Dry-Bulb Temperature Range {deltaC}
  24.6,                                   ! Humidity Indicating Conditions at Maximum Dry-Bulb {BasedOnField A3}
  101145,                                 ! Barometric Pressure {Pa}
  7.9,                                    ! Wind Speed {m/s}
  60,                                     ! Wind Direction {deg}
  0,                                      ! Sky Clearness
  0,                                      ! Rain Indicator
  0,                                      ! Snow Indicator
  21,                                     ! Day of Month
  8,                                      ! Month
  SummerDesignDay,                        ! Day Type
  0,                                      ! Daylight Saving Time Indicator
  Wetbulb,                                ! Humidity Indicating Type
  ,                                       ! Humidity Indicating Day Schedule Name
  DefaultMultipliers,                     ! Dry-Bulb Temperature Range Modifier Type
  ,                                       ! Dry-Bulb Temperature Range Modifier Schedule Name
  ASHRAETau,                              ! Solar Model Indicator
  ,                                       ! Beam Solar Day Schedule Name
  ,                                       ! Diffuse Solar Day Schedule Name
  0.383,                                  ! ASHRAE Taub {dimensionless}
  2.519;                                  ! ASHRAE Taud {dimensionless}

OS:ComponentData,
  {ed818508-9769-4d89-8021-ea240aa032a6}, ! Handle
  Component Data 1,                       ! Name
  {feb8392b-4c1c-42a6-bdb0-6d8d6494b3c4}, ! UUID
  {00b73aeb-81c5-4b24-bbd7-543a1beeb270}, ! Version UUID
  1366307097,                             ! Creation Timestamp
  1366307097,                             ! Version Timestamp
  {2b3966ca-e92f-4bb1-af63-50a7ba92ef42}; ! Name of Object 1

