
OS:Version,
  {b79996ba-6c6c-49c9-8abd-fd46f93ab08c}, ! Handle
  0.9.3;                                  ! Version Identifier

OS:SizingPeriod:DesignDay,
  {4c122a4e-2db5-40c1-a021-dfebf669d366}, ! Handle
  CEDAR_CITY Ann Clg 2% Condns DB=>MWB,   ! Name
  31.5,                                   ! Maximum Dry-Bulb Temperature {C}
  16.7,                                   ! Daily Dry-Bulb Temperature Range {deltaC}
  14.6,                                   ! Humidity Indicating Conditions at Maximum Dry-Bulb {BasedOnField A3}
  82379,                                  ! Barometric Pressure {Pa}
  5,                                      ! Wind Speed {m/s}
  210,                                    ! Wind Direction {deg}
  0,                                      ! Sky Clearness
  0,                                      ! Rain Indicator
  0,                                      ! Snow Indicator
  21,                                     ! Day of Month
  7,                                      ! Month
  SummerDesignDay,                        ! Day Type
  0,                                      ! Daylight Saving Time Indicator
  Wetbulb,                                ! Humidity Indicating Type
  ,                                       ! Humidity Indicating Day Schedule Name
  DefaultMultipliers,                     ! Dry-Bulb Temperature Range Modifier Type
  ,                                       ! Dry-Bulb Temperature Range Modifier Schedule Name
  ASHRAETau,                              ! Solar Model Indicator
  ,                                       ! Beam Solar Day Schedule Name
  ,                                       ! Diffuse Solar Day Schedule Name
  0.415,                                  ! ASHRAE Taub {dimensionless}
  2.019;                                  ! ASHRAE Taud {dimensionless}

OS:ComponentData,
  {f3e3fb8e-3fb6-4495-a2db-2693455efaea}, ! Handle
  Component Data 1,                       ! Name
  {ef72f92a-7d5b-4c4f-a04d-2483b76f0a19}, ! UUID
  {974402ef-44fd-4054-8e81-d46a09a26263}, ! Version UUID
  1366310949,                             ! Creation Timestamp
  1366310949,                             ! Version Timestamp
  {4c122a4e-2db5-40c1-a021-dfebf669d366}; ! Name of Object 1

