
OS:Version,
  {fa4c9585-90e6-4dfc-a0a3-27d8815daa5b}, ! Handle
  0.9.3;                                  ! Version Identifier

OS:SizingPeriod:DesignDay,
  {d3d41c9f-94e4-4453-9ef6-e2f360879403}, ! Handle
  Harrisburg Capital City Arpt Ann Clg 2% Condns Enth=>MDB, ! Name
  28.2,                                   ! Maximum Dry-Bulb Temperature {C}
  10.8,                                   ! Daily Dry-Bulb Temperature Range {deltaC}
  69600,                                  ! Humidity Indicating Conditions at Maximum Dry-Bulb {BasedOnField A3}
  100082,                                 ! Barometric Pressure {Pa}
  3.8,                                    ! Wind Speed {m/s}
  300,                                    ! Wind Direction {deg}
  0,                                      ! Sky Clearness
  0,                                      ! Rain Indicator
  0,                                      ! Snow Indicator
  21,                                     ! Day of Month
  7,                                      ! Month
  SummerDesignDay,                        ! Day Type
  0,                                      ! Daylight Saving Time Indicator
  Enthalpy,                               ! Humidity Indicating Type
  ,                                       ! Humidity Indicating Day Schedule Name
  DefaultMultipliers,                     ! Dry-Bulb Temperature Range Modifier Type
  ,                                       ! Dry-Bulb Temperature Range Modifier Schedule Name
  ASHRAETau,                              ! Solar Model Indicator
  ,                                       ! Beam Solar Day Schedule Name
  ,                                       ! Diffuse Solar Day Schedule Name
  0.519,                                  ! ASHRAE Taub {dimensionless}
  1.838;                                  ! ASHRAE Taud {dimensionless}

OS:ComponentData,
  {7fa0772d-2cf8-4277-8ac0-9aa4d092f808}, ! Handle
  Component Data 1,                       ! Name
  {a7b04a53-2370-4ab6-84b0-429b88c6ad98}, ! UUID
  {73ea754f-8624-49b9-a680-7e9bed3a006d}, ! Version UUID
  1366310190,                             ! Creation Timestamp
  1366310190,                             ! Version Timestamp
  {d3d41c9f-94e4-4453-9ef6-e2f360879403}; ! Name of Object 1

