
OS:Version,
  {70b720ec-438d-4fd8-95a6-a60b317fe1c3}, ! Handle
  0.9.3;                                  ! Version Identifier

OS:SizingPeriod:DesignDay,
  {3d1ade34-cd1b-4f38-b653-d04406f07778}, ! Handle
  Daytona Beach Intl Ap Ann Htg Wind 99.6% Condns WS=>MCDB, ! Name
  15.5,                                   ! Maximum Dry-Bulb Temperature {C}
  0,                                      ! Daily Dry-Bulb Temperature Range {deltaC}
  15.5,                                   ! Humidity Indicating Conditions at Maximum Dry-Bulb {BasedOnField A3}
  101217,                                 ! Barometric Pressure {Pa}
  11,                                     ! Wind Speed {m/s}
  310,                                    ! Wind Direction {deg}
  0,                                      ! Sky Clearness
  0,                                      ! Rain Indicator
  0,                                      ! Snow Indicator
  21,                                     ! Day of Month
  1,                                      ! Month
  WinterDesignDay,                        ! Day Type
  0,                                      ! Daylight Saving Time Indicator
  Wetbulb,                                ! Humidity Indicating Type
  ,                                       ! Humidity Indicating Day Schedule Name
  DefaultMultipliers,                     ! Dry-Bulb Temperature Range Modifier Type
  ,                                       ! Dry-Bulb Temperature Range Modifier Schedule Name
  ASHRAEClearSky;                         ! Solar Model Indicator

OS:ComponentData,
  {8a505cad-d387-406b-a5eb-d65f743e21ad}, ! Handle
  Component Data 1,                       ! Name
  {19d2e43f-3011-4457-ac49-1efdc7ae0242}, ! UUID
  {d42f88e7-0a7a-4666-9b9d-316ab2415a66}, ! Version UUID
  1366306792,                             ! Creation Timestamp
  1366306792,                             ! Version Timestamp
  {3d1ade34-cd1b-4f38-b653-d04406f07778}; ! Name of Object 1

