
OS:Version,
  {440ada66-965f-4a2c-ab11-c62f8a3429fe}, ! Handle
  0.9.3;                                  ! Version Identifier

OS:SizingPeriod:DesignDay,
  {d28067e9-f9da-466d-a617-e5d3704fa350}, ! Handle
  Huntsville Intl Jones Field Ann Clg 1% Condns DB=>MWB, ! Name
  33.4,                                   ! Maximum Dry-Bulb Temperature {C}
  10.4,                                   ! Daily Dry-Bulb Temperature Range {deltaC}
  23.7,                                   ! Humidity Indicating Conditions at Maximum Dry-Bulb {BasedOnField A3}
  99063,                                  ! Barometric Pressure {Pa}
  3.6,                                    ! Wind Speed {m/s}
  270,                                    ! Wind Direction {deg}
  0,                                      ! Sky Clearness
  0,                                      ! Rain Indicator
  0,                                      ! Snow Indicator
  21,                                     ! Day of Month
  7,                                      ! Month
  SummerDesignDay,                        ! Day Type
  0,                                      ! Daylight Saving Time Indicator
  Wetbulb,                                ! Humidity Indicating Type
  ,                                       ! Humidity Indicating Day Schedule Name
  DefaultMultipliers,                     ! Dry-Bulb Temperature Range Modifier Type
  ,                                       ! Dry-Bulb Temperature Range Modifier Schedule Name
  ASHRAETau,                              ! Solar Model Indicator
  ,                                       ! Beam Solar Day Schedule Name
  ,                                       ! Diffuse Solar Day Schedule Name
  0.552,                                  ! ASHRAE Taub {dimensionless}
  1.785;                                  ! ASHRAE Taud {dimensionless}

OS:ComponentData,
  {390ef23f-4745-457f-a546-f1b43299ec79}, ! Handle
  Component Data 1,                       ! Name
  {bedec90a-2d48-4888-b678-475afca8238b}, ! UUID
  {6b2fcf85-33a0-4b57-8141-24acaa213c47}, ! Version UUID
  1366305670,                             ! Creation Timestamp
  1366305670,                             ! Version Timestamp
  {d28067e9-f9da-466d-a617-e5d3704fa350}; ! Name of Object 1

