
OS:Version,
  {a71f0677-8912-4dd8-b8e1-26687276b04e}, ! Handle
  0.9.3;                                  ! Version Identifier

OS:SizingPeriod:DesignDay,
  {5d6fcd00-882d-440a-92ef-2d628bc7453f}, ! Handle
  KING_SALMON Ann Htg 99.6% Condns DB,    ! Name
  -31.4,                                  ! Maximum Dry-Bulb Temperature {C}
  0,                                      ! Daily Dry-Bulb Temperature Range {deltaC}
  -31.4,                                  ! Humidity Indicating Conditions at Maximum Dry-Bulb {BasedOnField A3}
  101145,                                 ! Barometric Pressure {Pa}
  2.4,                                    ! Wind Speed {m/s}
  10,                                     ! Wind Direction {deg}
  0,                                      ! Sky Clearness
  0,                                      ! Rain Indicator
  0,                                      ! Snow Indicator
  21,                                     ! Day of Month
  1,                                      ! Month
  WinterDesignDay,                        ! Day Type
  0,                                      ! Daylight Saving Time Indicator
  Wetbulb,                                ! Humidity Indicating Type
  ,                                       ! Humidity Indicating Day Schedule Name
  DefaultMultipliers,                     ! Dry-Bulb Temperature Range Modifier Type
  ,                                       ! Dry-Bulb Temperature Range Modifier Schedule Name
  ASHRAEClearSky;                         ! Solar Model Indicator

OS:ComponentData,
  {64bee2d0-5c7e-428b-b3a8-d7afef22db1f}, ! Handle
  Component Data 1,                       ! Name
  {6c820198-b91c-41fa-bd0d-7b8c6ca756b6}, ! UUID
  {afb0a4d3-63b5-42e2-ae2b-384ba47070fa}, ! Version UUID
  1366305357,                             ! Creation Timestamp
  1366305357,                             ! Version Timestamp
  {5d6fcd00-882d-440a-92ef-2d628bc7453f}; ! Name of Object 1

