
OS:Version,
  {abcddab9-bab5-4458-a03d-da288626d38f}, ! Handle
  0.9.3;                                  ! Version Identifier

OS:SizingPeriod:DesignDay,
  {8e9ebf12-257e-40b0-a5aa-6a446a5a61bd}, ! Handle
  Brunswick Malcolm Mckinnon Ap Ann Htg Wind 99% Condns WS=>MCDB, ! Name
  9.5,                                    ! Maximum Dry-Bulb Temperature {C}
  0,                                      ! Daily Dry-Bulb Temperature Range {deltaC}
  9.5,                                    ! Humidity Indicating Conditions at Maximum Dry-Bulb {BasedOnField A3}
  101277,                                 ! Barometric Pressure {Pa}
  8.4,                                    ! Wind Speed {m/s}
  350,                                    ! Wind Direction {deg}
  0,                                      ! Sky Clearness
  0,                                      ! Rain Indicator
  0,                                      ! Snow Indicator
  21,                                     ! Day of Month
  1,                                      ! Month
  WinterDesignDay,                        ! Day Type
  0,                                      ! Daylight Saving Time Indicator
  Wetbulb,                                ! Humidity Indicating Type
  ,                                       ! Humidity Indicating Day Schedule Name
  DefaultMultipliers,                     ! Dry-Bulb Temperature Range Modifier Type
  ,                                       ! Dry-Bulb Temperature Range Modifier Schedule Name
  ASHRAEClearSky;                         ! Solar Model Indicator

OS:ComponentData,
  {0482504b-e5f9-4790-8d03-41b8b5450744}, ! Handle
  Component Data 1,                       ! Name
  {b243a772-c36b-4bfa-9bc3-4557bd802240}, ! UUID
  {13755a25-fd75-42ff-b1de-643c2a15f59a}, ! Version UUID
  1366306996,                             ! Creation Timestamp
  1366306996,                             ! Version Timestamp
  {8e9ebf12-257e-40b0-a5aa-6a446a5a61bd}; ! Name of Object 1

