
OS:Version,
  {2d9d3f25-fed7-49e6-a33c-ddf337942f6b}, ! Handle
  0.9.3;                                  ! Version Identifier

OS:SizingPeriod:DesignDay,
  {2927ecb0-8123-44e8-9447-3032be4e40a8}, ! Handle
  Charleston Ann Clg 1% Condns Enth=>MDB, ! Name
  29.2,                                   ! Maximum Dry-Bulb Temperature {C}
  10.7,                                   ! Daily Dry-Bulb Temperature Range {deltaC}
  73800,                                  ! Humidity Indicating Conditions at Maximum Dry-Bulb {BasedOnField A3}
  97784,                                  ! Barometric Pressure {Pa}
  2.9,                                    ! Wind Speed {m/s}
  240,                                    ! Wind Direction {deg}
  0,                                      ! Sky Clearness
  0,                                      ! Rain Indicator
  0,                                      ! Snow Indicator
  21,                                     ! Day of Month
  7,                                      ! Month
  SummerDesignDay,                        ! Day Type
  0,                                      ! Daylight Saving Time Indicator
  Enthalpy,                               ! Humidity Indicating Type
  ,                                       ! Humidity Indicating Day Schedule Name
  DefaultMultipliers,                     ! Dry-Bulb Temperature Range Modifier Type
  ,                                       ! Dry-Bulb Temperature Range Modifier Schedule Name
  ASHRAETau,                              ! Solar Model Indicator
  ,                                       ! Beam Solar Day Schedule Name
  ,                                       ! Diffuse Solar Day Schedule Name
  0.513,                                  ! ASHRAE Taub {dimensionless}
  1.859;                                  ! ASHRAE Taud {dimensionless}

