
OS:Version,
  {04eb4376-804f-4e94-98ca-73637de693e3}, ! Handle
  0.9.3;                                  ! Version Identifier

OS:SizingPeriod:DesignDay,
  {5bb0d736-58ec-42d0-8659-c3ba5ca02774}, ! Handle
  Jamestown  Awos Ann Clg 2% Condns Enth=>MDB, ! Name
  24.2,                                   ! Maximum Dry-Bulb Temperature {C}
  9.1,                                    ! Daily Dry-Bulb Temperature Range {deltaC}
  61400,                                  ! Humidity Indicating Conditions at Maximum Dry-Bulb {BasedOnField A3}
  95175,                                  ! Barometric Pressure {Pa}
  4.2,                                    ! Wind Speed {m/s}
  240,                                    ! Wind Direction {deg}
  0,                                      ! Sky Clearness
  0,                                      ! Rain Indicator
  0,                                      ! Snow Indicator
  21,                                     ! Day of Month
  7,                                      ! Month
  SummerDesignDay,                        ! Day Type
  0,                                      ! Daylight Saving Time Indicator
  Enthalpy,                               ! Humidity Indicating Type
  ,                                       ! Humidity Indicating Day Schedule Name
  DefaultMultipliers,                     ! Dry-Bulb Temperature Range Modifier Type
  ,                                       ! Dry-Bulb Temperature Range Modifier Schedule Name
  ASHRAETau,                              ! Solar Model Indicator
  ,                                       ! Beam Solar Day Schedule Name
  ,                                       ! Diffuse Solar Day Schedule Name
  0.425,                                  ! ASHRAE Taub {dimensionless}
  2.121;                                  ! ASHRAE Taud {dimensionless}

OS:ComponentData,
  {0d3f3ea7-c69d-4e92-b381-29f3d82c75c0}, ! Handle
  Component Data 1,                       ! Name
  {e8fb27b9-2c01-4cd5-b73c-c51176411df2}, ! UUID
  {4700cbc6-f252-4516-88ad-dd1dffcadc46}, ! Version UUID
  1366309642,                             ! Creation Timestamp
  1366309642,                             ! Version Timestamp
  {5bb0d736-58ec-42d0-8659-c3ba5ca02774}; ! Name of Object 1

