
OS:Version,
  {02ae68fd-17c5-456a-a2db-592c9d44b3ee}, ! Handle
  0.9.3;                                  ! Version Identifier

OS:SizingPeriod:DesignDay,
  {2375df55-af92-45cf-8bbd-ab73884b8c19}, ! Handle
  Burns Municipal Arpt  Uo Ann Hum_n 99.6% Condns DP=>MCDB, ! Name
  -14.9,                                  ! Maximum Dry-Bulb Temperature {C}
  0,                                      ! Daily Dry-Bulb Temperature Range {deltaC}
  -22.5,                                  ! Humidity Indicating Conditions at Maximum Dry-Bulb {BasedOnField A3}
  86959,                                  ! Barometric Pressure {Pa}
  1.2,                                    ! Wind Speed {m/s}
  310,                                    ! Wind Direction {deg}
  0,                                      ! Sky Clearness
  0,                                      ! Rain Indicator
  0,                                      ! Snow Indicator
  21,                                     ! Day of Month
  12,                                     ! Month
  WinterDesignDay,                        ! Day Type
  0,                                      ! Daylight Saving Time Indicator
  Dewpoint,                               ! Humidity Indicating Type
  ,                                       ! Humidity Indicating Day Schedule Name
  DefaultMultipliers,                     ! Dry-Bulb Temperature Range Modifier Type
  ,                                       ! Dry-Bulb Temperature Range Modifier Schedule Name
  ASHRAEClearSky;                         ! Solar Model Indicator

OS:ComponentData,
  {b5c00817-29cd-412a-8520-373326b06e5b}, ! Handle
  Component Data 1,                       ! Name
  {ca5a93f2-cfc7-4b5d-bd3b-5ae1473e9f5b}, ! UUID
  {912bf5cb-e992-4844-8f8d-2cadf84fab61}, ! Version UUID
  1366309996,                             ! Creation Timestamp
  1366309996,                             ! Version Timestamp
  {2375df55-af92-45cf-8bbd-ab73884b8c19}; ! Name of Object 1

