
OS:Version,
  {ce514a5f-cdda-4126-b06b-516adf34a3ea}, ! Handle
  0.9.3;                                  ! Version Identifier

OS:SizingPeriod:DesignDay,
  {05115bb1-a416-49a8-8c6c-820024906fa3}, ! Handle
  Los Angeles Intl Arpt Ann Clg .4% Condns DP=>MDB, ! Name
  23.3,                                   ! Maximum Dry-Bulb Temperature {C}
  6,                                      ! Daily Dry-Bulb Temperature Range {deltaC}
  19.7,                                   ! Humidity Indicating Conditions at Maximum Dry-Bulb {BasedOnField A3}
  100965,                                 ! Barometric Pressure {Pa}
  4.1,                                    ! Wind Speed {m/s}
  250,                                    ! Wind Direction {deg}
  0,                                      ! Sky Clearness
  0,                                      ! Rain Indicator
  0,                                      ! Snow Indicator
  21,                                     ! Day of Month
  8,                                      ! Month
  SummerDesignDay,                        ! Day Type
  0,                                      ! Daylight Saving Time Indicator
  Dewpoint,                               ! Humidity Indicating Type
  ,                                       ! Humidity Indicating Day Schedule Name
  DefaultMultipliers,                     ! Dry-Bulb Temperature Range Modifier Type
  ,                                       ! Dry-Bulb Temperature Range Modifier Schedule Name
  ASHRAETau,                              ! Solar Model Indicator
  ,                                       ! Beam Solar Day Schedule Name
  ,                                       ! Diffuse Solar Day Schedule Name
  0.44,                                   ! ASHRAE Taub {dimensionless}
  2.108;                                  ! ASHRAE Taud {dimensionless}

OS:ComponentData,
  {3e6cd343-2178-48b2-acf5-1d2d5ebc8e2c}, ! Handle
  Component Data 1,                       ! Name
  {74d18b6d-3fd5-476f-9f76-ec6bdfd3db82}, ! UUID
  {fb211d4d-6515-4813-92ad-1277a1f74ca6}, ! Version UUID
  1366306484,                             ! Creation Timestamp
  1366306484,                             ! Version Timestamp
  {05115bb1-a416-49a8-8c6c-820024906fa3}; ! Name of Object 1

