
OS:Version,
  {dcdc4d03-6d69-49a6-a191-0a1d8def9459}, ! Handle
  0.9.3;                                  ! Version Identifier

OS:SizingPeriod:DesignDay,
  {37fe2dc1-3c8e-4bc6-aafc-dfce1dba1e29}, ! Handle
  Del Rio  Ut Ann Htg Wind 99.6% Condns WS=>MCDB, ! Name
  13.4,                                   ! Maximum Dry-Bulb Temperature {C}
  0,                                      ! Daily Dry-Bulb Temperature Range {deltaC}
  13.4,                                   ! Humidity Indicating Conditions at Maximum Dry-Bulb {BasedOnField A3}
  97679,                                  ! Barometric Pressure {Pa}
  11,                                     ! Wind Speed {m/s}
  310,                                    ! Wind Direction {deg}
  0,                                      ! Sky Clearness
  0,                                      ! Rain Indicator
  0,                                      ! Snow Indicator
  21,                                     ! Day of Month
  12,                                     ! Month
  WinterDesignDay,                        ! Day Type
  0,                                      ! Daylight Saving Time Indicator
  Wetbulb,                                ! Humidity Indicating Type
  ,                                       ! Humidity Indicating Day Schedule Name
  DefaultMultipliers,                     ! Dry-Bulb Temperature Range Modifier Type
  ,                                       ! Dry-Bulb Temperature Range Modifier Schedule Name
  ASHRAEClearSky;                         ! Solar Model Indicator

OS:ComponentData,
  {4a7d8fa7-fa79-4122-8238-73a4c6042ee6}, ! Handle
  Component Data 1,                       ! Name
  {84d21662-93dc-409d-ba34-a19a869416a8}, ! UUID
  {7635e015-fdac-4659-80a7-1628a740b896}, ! Version UUID
  1366310675,                             ! Creation Timestamp
  1366310675,                             ! Version Timestamp
  {37fe2dc1-3c8e-4bc6-aafc-dfce1dba1e29}; ! Name of Object 1

