
OS:Version,
  {350f8f07-a6dc-4d37-b15a-2116b3d6bc51}, ! Handle
  0.9.3;                                  ! Version Identifier

OS:SizingPeriod:DesignDay,
  {f05fe6e9-9796-450e-9a14-807a73186902}, ! Handle
  ALPENA Ann Clg .4% Condns WB=>MDB,      ! Name
  28.9,                                   ! Maximum Dry-Bulb Temperature {C}
  12.7,                                   ! Daily Dry-Bulb Temperature Range {deltaC}
  23.6,                                   ! Humidity Indicating Conditions at Maximum Dry-Bulb {BasedOnField A3}
  98828,                                  ! Barometric Pressure {Pa}
  4.8,                                    ! Wind Speed {m/s}
  230,                                    ! Wind Direction {deg}
  0,                                      ! Sky Clearness
  0,                                      ! Rain Indicator
  0,                                      ! Snow Indicator
  21,                                     ! Day of Month
  7,                                      ! Month
  SummerDesignDay,                        ! Day Type
  0,                                      ! Daylight Saving Time Indicator
  Wetbulb,                                ! Humidity Indicating Type
  ,                                       ! Humidity Indicating Day Schedule Name
  DefaultMultipliers,                     ! Dry-Bulb Temperature Range Modifier Type
  ,                                       ! Dry-Bulb Temperature Range Modifier Schedule Name
  ASHRAETau,                              ! Solar Model Indicator
  ,                                       ! Beam Solar Day Schedule Name
  ,                                       ! Diffuse Solar Day Schedule Name
  0.42,                                   ! ASHRAE Taub {dimensionless}
  2.176;                                  ! ASHRAE Taud {dimensionless}

OS:ComponentData,
  {c27e2dbf-fcd6-4109-9f2f-da5b5a73fe7d}, ! Handle
  Component Data 1,                       ! Name
  {107368ac-4487-4773-822a-f7605acc9bb4}, ! UUID
  {40df2eb6-8dc3-4ff4-8200-9bff46c285e4}, ! Version UUID
  1366307939,                             ! Creation Timestamp
  1366307939,                             ! Version Timestamp
  {f05fe6e9-9796-450e-9a14-807a73186902}; ! Name of Object 1

