
OS:Version,
  {0859c57c-8a56-4d3b-b28c-4e50418045e7}, ! Handle
  0.9.3;                                  ! Version Identifier

OS:SizingPeriod:DesignDay,
  {963f0963-f25e-41f1-8f21-f7ebe996003f}, ! Handle
  Barbers Point Nas Ann Clg 2% Condns WB=>MDB, ! Name
  29.3,                                   ! Maximum Dry-Bulb Temperature {C}
  8.6,                                    ! Daily Dry-Bulb Temperature Range {deltaC}
  24.3,                                   ! Humidity Indicating Conditions at Maximum Dry-Bulb {BasedOnField A3}
  101145,                                 ! Barometric Pressure {Pa}
  5.1,                                    ! Wind Speed {m/s}
  60,                                     ! Wind Direction {deg}
  0,                                      ! Sky Clearness
  0,                                      ! Rain Indicator
  0,                                      ! Snow Indicator
  21,                                     ! Day of Month
  8,                                      ! Month
  SummerDesignDay,                        ! Day Type
  0,                                      ! Daylight Saving Time Indicator
  Wetbulb,                                ! Humidity Indicating Type
  ,                                       ! Humidity Indicating Day Schedule Name
  DefaultMultipliers,                     ! Dry-Bulb Temperature Range Modifier Type
  ,                                       ! Dry-Bulb Temperature Range Modifier Schedule Name
  ASHRAETau,                              ! Solar Model Indicator
  ,                                       ! Beam Solar Day Schedule Name
  ,                                       ! Diffuse Solar Day Schedule Name
  0.382,                                  ! ASHRAE Taub {dimensionless}
  2.522;                                  ! ASHRAE Taud {dimensionless}

OS:ComponentData,
  {ad5753e6-60a5-407b-bab3-149a99242709}, ! Handle
  Component Data 1,                       ! Name
  {4eb617dc-0498-4a1c-9013-3185d24d6e05}, ! UUID
  {f1947482-e71e-4b90-b032-99b8aaa24de9}, ! Version UUID
  1366307073,                             ! Creation Timestamp
  1366307073,                             ! Version Timestamp
  {963f0963-f25e-41f1-8f21-f7ebe996003f}; ! Name of Object 1

