
OS:Version,
  {474bfb33-0136-407a-bd61-a708a8b9e330}, ! Handle
  0.9.3;                                  ! Version Identifier

OS:SizingPeriod:DesignDay,
  {323f2608-d1f0-4cb4-a30f-9a05c8fa715d}, ! Handle
  Concord Ann Clg .4% Condns Enth=>MDB,   ! Name
  29.2,                                   ! Maximum Dry-Bulb Temperature {C}
  12.8,                                   ! Daily Dry-Bulb Temperature Range {deltaC}
  71300,                                  ! Humidity Indicating Conditions at Maximum Dry-Bulb {BasedOnField A3}
  100070,                                 ! Barometric Pressure {Pa}
  4.4,                                    ! Wind Speed {m/s}
  230,                                    ! Wind Direction {deg}
  0,                                      ! Sky Clearness
  0,                                      ! Rain Indicator
  0,                                      ! Snow Indicator
  21,                                     ! Day of Month
  7,                                      ! Month
  SummerDesignDay,                        ! Day Type
  0,                                      ! Daylight Saving Time Indicator
  Enthalpy,                               ! Humidity Indicating Type
  ,                                       ! Humidity Indicating Day Schedule Name
  DefaultMultipliers,                     ! Dry-Bulb Temperature Range Modifier Type
  ,                                       ! Dry-Bulb Temperature Range Modifier Schedule Name
  ASHRAETau,                              ! Solar Model Indicator
  ,                                       ! Beam Solar Day Schedule Name
  ,                                       ! Diffuse Solar Day Schedule Name
  0.459,                                  ! ASHRAE Taub {dimensionless}
  2.014;                                  ! ASHRAE Taud {dimensionless}

OS:ComponentData,
  {fcd07d9a-a478-4b77-9680-d2fe48c5e879}, ! Handle
  Component Data 1,                       ! Name
  {992d53c3-e4b3-4b92-8a9d-9beac8a1aad7}, ! UUID
  {b7d08adf-bd8a-43ac-b89f-c3c7e91890ea}, ! Version UUID
  1366309227,                             ! Creation Timestamp
  1366309227,                             ! Version Timestamp
  {323f2608-d1f0-4cb4-a30f-9a05c8fa715d}; ! Name of Object 1

