
OS:Version,
  {32efa5cf-8d70-40b1-adc4-3709fbe59767}, ! Handle
  0.9.3;                                  ! Version Identifier

OS:SizingPeriod:DesignDay,
  {214bb738-bf77-419f-b1e4-35ac7ed5f44e}, ! Handle
  Coeur D Alene Awos Ann Clg .4% Condns Enth=>MDB, ! Name
  29.9,                                   ! Maximum Dry-Bulb Temperature {C}
  15.6,                                   ! Daily Dry-Bulb Temperature Range {deltaC}
  55600,                                  ! Humidity Indicating Conditions at Maximum Dry-Bulb {BasedOnField A3}
  93115,                                  ! Barometric Pressure {Pa}
  2.8,                                    ! Wind Speed {m/s}
  250,                                    ! Wind Direction {deg}
  0,                                      ! Sky Clearness
  0,                                      ! Rain Indicator
  0,                                      ! Snow Indicator
  21,                                     ! Day of Month
  7,                                      ! Month
  SummerDesignDay,                        ! Day Type
  0,                                      ! Daylight Saving Time Indicator
  Enthalpy,                               ! Humidity Indicating Type
  ,                                       ! Humidity Indicating Day Schedule Name
  DefaultMultipliers,                     ! Dry-Bulb Temperature Range Modifier Type
  ,                                       ! Dry-Bulb Temperature Range Modifier Schedule Name
  ASHRAETau,                              ! Solar Model Indicator
  ,                                       ! Beam Solar Day Schedule Name
  ,                                       ! Diffuse Solar Day Schedule Name
  0.345,                                  ! ASHRAE Taub {dimensionless}
  2.481;                                  ! ASHRAE Taud {dimensionless}

OS:ComponentData,
  {fda59998-a050-4f8d-ab72-bd8ff04de8fd}, ! Handle
  Component Data 1,                       ! Name
  {52f7d0e0-63b9-4e70-94bc-ca9d09b7f3f2}, ! UUID
  {0a1d069c-a561-44a3-806e-2bcdcedd9492}, ! Version UUID
  1366307281,                             ! Creation Timestamp
  1366307281,                             ! Version Timestamp
  {214bb738-bf77-419f-b1e4-35ac7ed5f44e}; ! Name of Object 1

