
OS:Version,
  {98bb8908-2542-4316-a07e-4b91ea505251}, ! Handle
  0.9.3;                                  ! Version Identifier

OS:SizingPeriod:DesignDay,
  {0557b863-e02a-4df9-818c-7a106fd3cbe6}, ! Handle
  Kalamazoo Battle Cr Ann Clg 2% Condns DP=>MDB, ! Name
  25.6,                                   ! Maximum Dry-Bulb Temperature {C}
  11.1,                                   ! Daily Dry-Bulb Temperature Range {deltaC}
  21.3,                                   ! Humidity Indicating Conditions at Maximum Dry-Bulb {BasedOnField A3}
  98088,                                  ! Barometric Pressure {Pa}
  4.8,                                    ! Wind Speed {m/s}
  210,                                    ! Wind Direction {deg}
  0,                                      ! Sky Clearness
  0,                                      ! Rain Indicator
  0,                                      ! Snow Indicator
  21,                                     ! Day of Month
  7,                                      ! Month
  SummerDesignDay,                        ! Day Type
  0,                                      ! Daylight Saving Time Indicator
  Dewpoint,                               ! Humidity Indicating Type
  ,                                       ! Humidity Indicating Day Schedule Name
  DefaultMultipliers,                     ! Dry-Bulb Temperature Range Modifier Type
  ,                                       ! Dry-Bulb Temperature Range Modifier Schedule Name
  ASHRAETau,                              ! Solar Model Indicator
  ,                                       ! Beam Solar Day Schedule Name
  ,                                       ! Diffuse Solar Day Schedule Name
  0.424,                                  ! ASHRAE Taub {dimensionless}
  2.175;                                  ! ASHRAE Taud {dimensionless}

OS:ComponentData,
  {0b234043-b4d9-4584-9014-a192babecf79}, ! Handle
  Component Data 1,                       ! Name
  {36e371d2-6b5e-46a7-9df0-640a8026eea9}, ! UUID
  {9065df6a-e782-436b-bd0a-515ee394b96c}, ! Version UUID
  1366308049,                             ! Creation Timestamp
  1366308049,                             ! Version Timestamp
  {0557b863-e02a-4df9-818c-7a106fd3cbe6}; ! Name of Object 1

