
OS:Version,
  {31e49c8e-de5a-4a63-889a-b08e11f4a0f4}, ! Handle
  0.9.3;                                  ! Version Identifier

OS:SizingPeriod:DesignDay,
  {9123238d-0bb9-49d5-8651-d1561a7099d7}, ! Handle
  DAGGETT Ann Clg .4% Condns DP=>MDB,     ! Name
  27.8,                                   ! Maximum Dry-Bulb Temperature {C}
  16.6,                                   ! Daily Dry-Bulb Temperature Range {deltaC}
  18.7,                                   ! Humidity Indicating Conditions at Maximum Dry-Bulb {BasedOnField A3}
  94458,                                  ! Barometric Pressure {Pa}
  4.8,                                    ! Wind Speed {m/s}
  290,                                    ! Wind Direction {deg}
  0,                                      ! Sky Clearness
  0,                                      ! Rain Indicator
  0,                                      ! Snow Indicator
  21,                                     ! Day of Month
  7,                                      ! Month
  SummerDesignDay,                        ! Day Type
  0,                                      ! Daylight Saving Time Indicator
  Dewpoint,                               ! Humidity Indicating Type
  ,                                       ! Humidity Indicating Day Schedule Name
  DefaultMultipliers,                     ! Dry-Bulb Temperature Range Modifier Type
  ,                                       ! Dry-Bulb Temperature Range Modifier Schedule Name
  ASHRAETau,                              ! Solar Model Indicator
  ,                                       ! Beam Solar Day Schedule Name
  ,                                       ! Diffuse Solar Day Schedule Name
  0.497,                                  ! ASHRAE Taub {dimensionless}
  1.821;                                  ! ASHRAE Taud {dimensionless}

OS:ComponentData,
  {29f3894e-468a-4e5c-8efb-093df56bbf21}, ! Handle
  Component Data 1,                       ! Name
  {cf6af907-772d-45e2-a2a3-37a63674304d}, ! UUID
  {cc94a429-411c-43ff-a87e-552754b77058}, ! Version UUID
  1366306371,                             ! Creation Timestamp
  1366306371,                             ! Version Timestamp
  {9123238d-0bb9-49d5-8651-d1561a7099d7}; ! Name of Object 1

