
OS:Version,
  {80128acb-8dc1-40ed-94d6-b72808bd6896}, ! Handle
  0.9.3;                                  ! Version Identifier

OS:SizingPeriod:DesignDay,
  {40e7a8da-b0cb-442e-9626-00a7c4db6bee}, ! Handle
  Anderson County Ap Ann Clg .4% Condns Enth=>MDB, ! Name
  31.9,                                   ! Maximum Dry-Bulb Temperature {C}
  10.9,                                   ! Daily Dry-Bulb Temperature Range {deltaC}
  78700,                                  ! Humidity Indicating Conditions at Maximum Dry-Bulb {BasedOnField A3}
  98569,                                  ! Barometric Pressure {Pa}
  3.8,                                    ! Wind Speed {m/s}
  250,                                    ! Wind Direction {deg}
  0,                                      ! Sky Clearness
  0,                                      ! Rain Indicator
  0,                                      ! Snow Indicator
  21,                                     ! Day of Month
  7,                                      ! Month
  SummerDesignDay,                        ! Day Type
  0,                                      ! Daylight Saving Time Indicator
  Enthalpy,                               ! Humidity Indicating Type
  ,                                       ! Humidity Indicating Day Schedule Name
  DefaultMultipliers,                     ! Dry-Bulb Temperature Range Modifier Type
  ,                                       ! Dry-Bulb Temperature Range Modifier Schedule Name
  ASHRAETau,                              ! Solar Model Indicator
  ,                                       ! Beam Solar Day Schedule Name
  ,                                       ! Diffuse Solar Day Schedule Name
  0.545,                                  ! ASHRAE Taub {dimensionless}
  1.797;                                  ! ASHRAE Taud {dimensionless}

OS:ComponentData,
  {a4b31e89-a71b-4b4a-b7e7-230a312fa235}, ! Handle
  Component Data 1,                       ! Name
  {115b0c91-170d-4b46-a854-8a48a997029b}, ! UUID
  {12d37676-ba0d-4389-b5b8-1ffb177149fa}, ! Version UUID
  1366310314,                             ! Creation Timestamp
  1366310314,                             ! Version Timestamp
  {40e7a8da-b0cb-442e-9626-00a7c4db6bee}; ! Name of Object 1

