
OS:Version,
  {566080b0-456d-45d8-adec-159a88250b63}, ! Handle
  0.9.3;                                  ! Version Identifier

OS:SizingPeriod:DesignDay,
  {ae69790d-ce2b-4d0d-acc3-938698be20c4}, ! Handle
  Del Rio Laughlin Afb Ann Clg .4% Condns DP=>MDB, ! Name
  28.4,                                   ! Maximum Dry-Bulb Temperature {C}
  11.9,                                   ! Daily Dry-Bulb Temperature Range {deltaC}
  24.1,                                   ! Humidity Indicating Conditions at Maximum Dry-Bulb {BasedOnField A3}
  97458,                                  ! Barometric Pressure {Pa}
  5.1,                                    ! Wind Speed {m/s}
  130,                                    ! Wind Direction {deg}
  0,                                      ! Sky Clearness
  0,                                      ! Rain Indicator
  0,                                      ! Snow Indicator
  21,                                     ! Day of Month
  7,                                      ! Month
  SummerDesignDay,                        ! Day Type
  0,                                      ! Daylight Saving Time Indicator
  Dewpoint,                               ! Humidity Indicating Type
  ,                                       ! Humidity Indicating Day Schedule Name
  DefaultMultipliers,                     ! Dry-Bulb Temperature Range Modifier Type
  ,                                       ! Dry-Bulb Temperature Range Modifier Schedule Name
  ASHRAETau,                              ! Solar Model Indicator
  ,                                       ! Beam Solar Day Schedule Name
  ,                                       ! Diffuse Solar Day Schedule Name
  0.473,                                  ! ASHRAE Taub {dimensionless}
  2.019;                                  ! ASHRAE Taud {dimensionless}

OS:ComponentData,
  {52576459-10e1-4e25-b75c-5041e621f616}, ! Handle
  Component Data 1,                       ! Name
  {f96cf0a7-595b-451f-9730-da957b5958c8}, ! UUID
  {f0a0b58d-3c61-4c9e-b33e-9b2e7b190c92}, ! Version UUID
  1366310668,                             ! Creation Timestamp
  1366310668,                             ! Version Timestamp
  {ae69790d-ce2b-4d0d-acc3-938698be20c4}; ! Name of Object 1

