
OS:Version,
  {7efa3ee4-428e-4e96-a4c1-3b849abfa4a5}, ! Handle
  0.9.3;                                  ! Version Identifier

OS:SizingPeriod:DesignDay,
  {b562f057-7970-4d08-93e9-8356869ee3ab}, ! Handle
  Kansas City Downtown Ap Ann Htg Wind 99.6% Condns WS=>MCDB, ! Name
  4.1,                                    ! Maximum Dry-Bulb Temperature {C}
  0,                                      ! Daily Dry-Bulb Temperature Range {deltaC}
  4.1,                                    ! Humidity Indicating Conditions at Maximum Dry-Bulb {BasedOnField A3}
  98639,                                  ! Barometric Pressure {Pa}
  11,                                     ! Wind Speed {m/s}
  0,                                      ! Wind Direction {deg}
  0,                                      ! Sky Clearness
  0,                                      ! Rain Indicator
  0,                                      ! Snow Indicator
  21,                                     ! Day of Month
  1,                                      ! Month
  WinterDesignDay,                        ! Day Type
  0,                                      ! Daylight Saving Time Indicator
  Wetbulb,                                ! Humidity Indicating Type
  ,                                       ! Humidity Indicating Day Schedule Name
  DefaultMultipliers,                     ! Dry-Bulb Temperature Range Modifier Type
  ,                                       ! Dry-Bulb Temperature Range Modifier Schedule Name
  ASHRAEClearSky;                         ! Solar Model Indicator

OS:ComponentData,
  {554e86e0-d536-4661-8817-86092a97a939}, ! Handle
  Component Data 1,                       ! Name
  {97794eed-9543-4a54-a7f2-43bab6a72923}, ! UUID
  {73c167d8-15b8-45d5-a99d-b2dca77af93c}, ! Version UUID
  1366308525,                             ! Creation Timestamp
  1366308525,                             ! Version Timestamp
  {b562f057-7970-4d08-93e9-8356869ee3ab}; ! Name of Object 1

