
OS:Version,
  {a9cc0931-678b-4b97-9a5c-dcd898486c69}, ! Handle
  0.9.3;                                  ! Version Identifier

OS:SizingPeriod:DesignDay,
  {54711642-c717-496d-a5a1-0d22106f7569}, ! Handle
  Brookings  Awos Ann Clg 1% Condns DB=>MWB, ! Name
  29.8,                                   ! Maximum Dry-Bulb Temperature {C}
  10.8,                                   ! Daily Dry-Bulb Temperature Range {deltaC}
  21.7,                                   ! Humidity Indicating Conditions at Maximum Dry-Bulb {BasedOnField A3}
  95438,                                  ! Barometric Pressure {Pa}
  5.9,                                    ! Wind Speed {m/s}
  190,                                    ! Wind Direction {deg}
  0,                                      ! Sky Clearness
  0,                                      ! Rain Indicator
  0,                                      ! Snow Indicator
  21,                                     ! Day of Month
  7,                                      ! Month
  SummerDesignDay,                        ! Day Type
  0,                                      ! Daylight Saving Time Indicator
  Wetbulb,                                ! Humidity Indicating Type
  ,                                       ! Humidity Indicating Day Schedule Name
  DefaultMultipliers,                     ! Dry-Bulb Temperature Range Modifier Type
  ,                                       ! Dry-Bulb Temperature Range Modifier Schedule Name
  ASHRAETau,                              ! Solar Model Indicator
  ,                                       ! Beam Solar Day Schedule Name
  ,                                       ! Diffuse Solar Day Schedule Name
  0.39,                                   ! ASHRAE Taub {dimensionless}
  2.285;                                  ! ASHRAE Taud {dimensionless}

OS:ComponentData,
  {d4394bb9-9afb-4aec-95ee-890892f630e8}, ! Handle
  Component Data 1,                       ! Name
  {9003d046-b55a-41c7-bbde-01562ddcb099}, ! UUID
  {905febaa-e6fe-4da4-a7df-557be6b9c368}, ! Version UUID
  1366310389,                             ! Creation Timestamp
  1366310389,                             ! Version Timestamp
  {54711642-c717-496d-a5a1-0d22106f7569}; ! Name of Object 1

