
OS:Version,
  {34174716-df14-4858-a8ef-65f5ea25ed51}, ! Handle
  0.9.3;                                  ! Version Identifier

OS:SizingPeriod:DesignDay,
  {ddf2142f-c666-4558-b4b9-148e837095ce}, ! Handle
  BURLINGTON Ann Hum_n 99% Condns DP=>MCDB, ! Name
  -18.9,                                  ! Maximum Dry-Bulb Temperature {C}
  0,                                      ! Daily Dry-Bulb Temperature Range {deltaC}
  -25,                                    ! Humidity Indicating Conditions at Maximum Dry-Bulb {BasedOnField A3}
  100082,                                 ! Barometric Pressure {Pa}
  3,                                      ! Wind Speed {m/s}
  60,                                     ! Wind Direction {deg}
  0,                                      ! Sky Clearness
  0,                                      ! Rain Indicator
  0,                                      ! Snow Indicator
  21,                                     ! Day of Month
  1,                                      ! Month
  WinterDesignDay,                        ! Day Type
  0,                                      ! Daylight Saving Time Indicator
  Dewpoint,                               ! Humidity Indicating Type
  ,                                       ! Humidity Indicating Day Schedule Name
  DefaultMultipliers,                     ! Dry-Bulb Temperature Range Modifier Type
  ,                                       ! Dry-Bulb Temperature Range Modifier Schedule Name
  ASHRAEClearSky;                         ! Solar Model Indicator

OS:ComponentData,
  {67ca4ce9-8a96-45e0-ab5a-d97217d5888e}, ! Handle
  Component Data 1,                       ! Name
  {4d64238d-b56f-4a89-a0af-db3895e8ec6e}, ! UUID
  {5abd1806-4fd7-4428-a330-67c774fb19d1}, ! Version UUID
  1366311234,                             ! Creation Timestamp
  1366311234,                             ! Version Timestamp
  {ddf2142f-c666-4558-b4b9-148e837095ce}; ! Name of Object 1

