
OS:Version,
  {269ffe81-b360-44aa-8352-9d301fc70ed7}, ! Handle
  0.9.3;                                  ! Version Identifier

OS:SizingPeriod:DesignDay,
  {7715587b-b489-4ad7-9e63-031698d44583}, ! Handle
  ALBUQUERQUE Ann Clg .4% Condns Enth=>MDB, ! Name
  27.7,                                   ! Maximum Dry-Bulb Temperature {C}
  13.5,                                   ! Daily Dry-Bulb Temperature Range {deltaC}
  59000,                                  ! Humidity Indicating Conditions at Maximum Dry-Bulb {BasedOnField A3}
  83328,                                  ! Barometric Pressure {Pa}
  4.4,                                    ! Wind Speed {m/s}
  220,                                    ! Wind Direction {deg}
  0,                                      ! Sky Clearness
  0,                                      ! Rain Indicator
  0,                                      ! Snow Indicator
  21,                                     ! Day of Month
  7,                                      ! Month
  SummerDesignDay,                        ! Day Type
  0,                                      ! Daylight Saving Time Indicator
  Enthalpy,                               ! Humidity Indicating Type
  ,                                       ! Humidity Indicating Day Schedule Name
  DefaultMultipliers,                     ! Dry-Bulb Temperature Range Modifier Type
  ,                                       ! Dry-Bulb Temperature Range Modifier Schedule Name
  ASHRAETau,                              ! Solar Model Indicator
  ,                                       ! Beam Solar Day Schedule Name
  ,                                       ! Diffuse Solar Day Schedule Name
  0.463,                                  ! ASHRAE Taub {dimensionless}
  1.887;                                  ! ASHRAE Taud {dimensionless}

OS:ComponentData,
  {d6644437-911a-4232-bb7a-eade2153c2d7}, ! Handle
  Component Data 1,                       ! Name
  {49c18415-501c-4590-a7e0-569d13f9993b}, ! UUID
  {ddf4dcf9-4cd9-4c6c-bc7a-05bedae2082b}, ! Version UUID
  1366309359,                             ! Creation Timestamp
  1366309359,                             ! Version Timestamp
  {7715587b-b489-4ad7-9e63-031698d44583}; ! Name of Object 1

