
OS:Version,
  {9133e39c-b314-4816-9997-8b2ce582904b}, ! Handle
  0.9.3;                                  ! Version Identifier

OS:SizingPeriod:DesignDay,
  {9d12748c-ba76-4dce-b273-9179aa234693}, ! Handle
  Asheville Ann Htg 99.6% Condns DB,      ! Name
  -10.2,                                  ! Maximum Dry-Bulb Temperature {C}
  0,                                      ! Daily Dry-Bulb Temperature Range {deltaC}
  -10.2,                                  ! Humidity Indicating Conditions at Maximum Dry-Bulb {BasedOnField A3}
  93632,                                  ! Barometric Pressure {Pa}
  5.4,                                    ! Wind Speed {m/s}
  340,                                    ! Wind Direction {deg}
  0,                                      ! Sky Clearness
  0,                                      ! Rain Indicator
  0,                                      ! Snow Indicator
  21,                                     ! Day of Month
  1,                                      ! Month
  WinterDesignDay,                        ! Day Type
  0,                                      ! Daylight Saving Time Indicator
  Wetbulb,                                ! Humidity Indicating Type
  ,                                       ! Humidity Indicating Day Schedule Name
  DefaultMultipliers,                     ! Dry-Bulb Temperature Range Modifier Type
  ,                                       ! Dry-Bulb Temperature Range Modifier Schedule Name
  ASHRAEClearSky;                         ! Solar Model Indicator

OS:ComponentData,
  {ae1433e2-9519-4292-ab92-d3512fc4431f}, ! Handle
  Component Data 1,                       ! Name
  {ca411599-0aae-45d2-b0e7-e2417d482cc4}, ! UUID
  {736b7ba2-16d6-4caa-a69e-826733d6635b}, ! Version UUID
  1366308863,                             ! Creation Timestamp
  1366308863,                             ! Version Timestamp
  {9d12748c-ba76-4dce-b273-9179aa234693}; ! Name of Object 1

