
OS:Version,
  {bb83be8a-e497-4064-9f27-73a92f98929d}, ! Handle
  0.9.3;                                  ! Version Identifier

OS:SizingPeriod:DesignDay,
  {f8630b2f-0091-4dc2-a50f-503bba526c38}, ! Handle
  Leesburg Godfrey Ann Clg .4% Condns Enth=>MDB, ! Name
  32.9,                                   ! Maximum Dry-Bulb Temperature {C}
  11.8,                                   ! Daily Dry-Bulb Temperature Range {deltaC}
  82300,                                  ! Humidity Indicating Conditions at Maximum Dry-Bulb {BasedOnField A3}
  99904,                                  ! Barometric Pressure {Pa}
  2.9,                                    ! Wind Speed {m/s}
  250,                                    ! Wind Direction {deg}
  0,                                      ! Sky Clearness
  0,                                      ! Rain Indicator
  0,                                      ! Snow Indicator
  21,                                     ! Day of Month
  7,                                      ! Month
  SummerDesignDay,                        ! Day Type
  0,                                      ! Daylight Saving Time Indicator
  Enthalpy,                               ! Humidity Indicating Type
  ,                                       ! Humidity Indicating Day Schedule Name
  DefaultMultipliers,                     ! Dry-Bulb Temperature Range Modifier Type
  ,                                       ! Dry-Bulb Temperature Range Modifier Schedule Name
  ASHRAETau,                              ! Solar Model Indicator
  ,                                       ! Beam Solar Day Schedule Name
  ,                                       ! Diffuse Solar Day Schedule Name
  0.537,                                  ! ASHRAE Taub {dimensionless}
  1.8;                                    ! ASHRAE Taud {dimensionless}

OS:ComponentData,
  {4348a601-7c46-4614-ae20-3b93f07fdf7f}, ! Handle
  Component Data 1,                       ! Name
  {df3a3b68-4e01-4d9b-aa6f-0ddd74bfeeb6}, ! UUID
  {570f2f94-193a-4f95-847c-638a78130d5f}, ! Version UUID
  1366311078,                             ! Creation Timestamp
  1366311078,                             ! Version Timestamp
  {f8630b2f-0091-4dc2-a50f-503bba526c38}; ! Name of Object 1

