
OS:Version,
  {f38012d8-7f26-4a92-85a0-baba7dd284a7}, ! Handle
  0.9.3;                                  ! Version Identifier

OS:SizingPeriod:DesignDay,
  {463d754d-4780-4d7b-b178-e1109614b242}, ! Handle
  Kelso Wb Ap Ann Htg 99.6% Condns DB,    ! Name
  -5.8,                                   ! Maximum Dry-Bulb Temperature {C}
  0,                                      ! Daily Dry-Bulb Temperature Range {deltaC}
  -5.8,                                   ! Humidity Indicating Conditions at Maximum Dry-Bulb {BasedOnField A3}
  101265,                                 ! Barometric Pressure {Pa}
  1.1,                                    ! Wind Speed {m/s}
  160,                                    ! Wind Direction {deg}
  0,                                      ! Sky Clearness
  0,                                      ! Rain Indicator
  0,                                      ! Snow Indicator
  21,                                     ! Day of Month
  12,                                     ! Month
  WinterDesignDay,                        ! Day Type
  0,                                      ! Daylight Saving Time Indicator
  Wetbulb,                                ! Humidity Indicating Type
  ,                                       ! Humidity Indicating Day Schedule Name
  DefaultMultipliers,                     ! Dry-Bulb Temperature Range Modifier Type
  ,                                       ! Dry-Bulb Temperature Range Modifier Schedule Name
  ASHRAEClearSky;                         ! Solar Model Indicator

OS:ComponentData,
  {7ec24f48-0279-4f7a-a4f7-6adc62d4a7c1}, ! Handle
  Component Data 1,                       ! Name
  {bdc052dd-3e9f-4548-bf49-3e27a031ddd5}, ! UUID
  {8ecf2937-9df1-48b0-aa8e-39087b6151cc}, ! Version UUID
  1366311295,                             ! Creation Timestamp
  1366311295,                             ! Version Timestamp
  {463d754d-4780-4d7b-b178-e1109614b242}; ! Name of Object 1

