
OS:Version,
  {08ff150a-5f7f-45da-99cd-820d6de219f0}, ! Handle
  0.9.3;                                  ! Version Identifier

OS:SizingPeriod:DesignDay,
  {a4642b34-d03f-4950-a7ee-29aa12088bcf}, ! Handle
  Lake Charles Regional Arpt Ann Htg Wind 99.6% Condns WS=>MCDB, ! Name
  12.7,                                   ! Maximum Dry-Bulb Temperature {C}
  0,                                      ! Daily Dry-Bulb Temperature Range {deltaC}
  12.7,                                   ! Humidity Indicating Conditions at Maximum Dry-Bulb {BasedOnField A3}
  101265,                                 ! Barometric Pressure {Pa}
  11,                                     ! Wind Speed {m/s}
  20,                                     ! Wind Direction {deg}
  0,                                      ! Sky Clearness
  0,                                      ! Rain Indicator
  0,                                      ! Snow Indicator
  21,                                     ! Day of Month
  1,                                      ! Month
  WinterDesignDay,                        ! Day Type
  0,                                      ! Daylight Saving Time Indicator
  Wetbulb,                                ! Humidity Indicating Type
  ,                                       ! Humidity Indicating Day Schedule Name
  DefaultMultipliers,                     ! Dry-Bulb Temperature Range Modifier Type
  ,                                       ! Dry-Bulb Temperature Range Modifier Schedule Name
  ASHRAEClearSky;                         ! Solar Model Indicator

OS:ComponentData,
  {51a4c497-b911-4bb3-9599-1f7c1797dbac}, ! Handle
  Component Data 1,                       ! Name
  {e3247a25-0bf8-413f-967d-fe588e6de312}, ! UUID
  {9fed9471-82f3-4676-ad7b-125571ba15f5}, ! Version UUID
  1366307731,                             ! Creation Timestamp
  1366307731,                             ! Version Timestamp
  {a4642b34-d03f-4950-a7ee-29aa12088bcf}; ! Name of Object 1

