
OS:Version,
  {98fbdab7-1310-4194-a9c9-98ba8b3a11de}, ! Handle
  0.9.3;                                  ! Version Identifier

OS:SizingPeriod:DesignDay,
  {b060c14d-9c79-4619-bd05-b4c230d82604}, ! Handle
  Ewa/Barbers Point NAS Ann Clg .4% Condns WB=>MDB, ! Name
  29.8,                                   ! Maximum Dry-Bulb Temperature {C}
  8.6,                                    ! Daily Dry-Bulb Temperature Range {deltaC}
  25.4,                                   ! Humidity Indicating Conditions at Maximum Dry-Bulb {BasedOnField A3}
  101145,                                 ! Barometric Pressure {Pa}
  5.1,                                    ! Wind Speed {m/s}
  60,                                     ! Wind Direction {deg}
  0,                                      ! Sky Clearness
  0,                                      ! Rain Indicator
  0,                                      ! Snow Indicator
  21,                                     ! Day of Month
  8,                                      ! Month
  SummerDesignDay,                        ! Day Type
  0,                                      ! Daylight Saving Time Indicator
  Wetbulb,                                ! Humidity Indicating Type
  ,                                       ! Humidity Indicating Day Schedule Name
  DefaultMultipliers,                     ! Dry-Bulb Temperature Range Modifier Type
  ,                                       ! Dry-Bulb Temperature Range Modifier Schedule Name
  ASHRAETau,                              ! Solar Model Indicator
  ,                                       ! Beam Solar Day Schedule Name
  ,                                       ! Diffuse Solar Day Schedule Name
  0.382,                                  ! ASHRAE Taub {dimensionless}
  2.522;                                  ! ASHRAE Taud {dimensionless}

OS:ComponentData,
  {f2f881d0-b2bc-4ecc-85ec-8e70b65e0f4e}, ! Handle
  Component Data 1,                       ! Name
  {cd4b807a-dc4e-4bb8-862e-f13ede924b8c}, ! UUID
  {34d119db-bd3d-4579-8671-5d11a246dac1}, ! Version UUID
  1366307070,                             ! Creation Timestamp
  1366307070,                             ! Version Timestamp
  {b060c14d-9c79-4619-bd05-b4c230d82604}; ! Name of Object 1

