
OS:Version,
  {e8bef0fd-f6ba-4691-9294-76ab098d7f93}, ! Handle
  0.9.3;                                  ! Version Identifier

OS:SizingPeriod:DesignDay,
  {07b1fedd-b1f7-42c1-81e8-5f69656603fb}, ! Handle
  Fargo Hector International Ap Ann Htg 99% Condns DB, ! Name
  -26.2,                                  ! Maximum Dry-Bulb Temperature {C}
  0,                                      ! Daily Dry-Bulb Temperature Range {deltaC}
  -26.2,                                  ! Humidity Indicating Conditions at Maximum Dry-Bulb {BasedOnField A3}
  98076,                                  ! Barometric Pressure {Pa}
  3.6,                                    ! Wind Speed {m/s}
  200,                                    ! Wind Direction {deg}
  0,                                      ! Sky Clearness
  0,                                      ! Rain Indicator
  0,                                      ! Snow Indicator
  21,                                     ! Day of Month
  1,                                      ! Month
  WinterDesignDay,                        ! Day Type
  0,                                      ! Daylight Saving Time Indicator
  Wetbulb,                                ! Humidity Indicating Type
  ,                                       ! Humidity Indicating Day Schedule Name
  DefaultMultipliers,                     ! Dry-Bulb Temperature Range Modifier Type
  ,                                       ! Dry-Bulb Temperature Range Modifier Schedule Name
  ASHRAEClearSky;                         ! Solar Model Indicator

OS:ComponentData,
  {ccce708d-6379-4b53-b7e7-069ecdbfac77}, ! Handle
  Component Data 1,                       ! Name
  {35fe1c98-4756-4023-9219-0d1b72305c42}, ! UUID
  {b031005a-4bd7-4f2a-9c34-6c20d0e89585}, ! Version UUID
  1366309029,                             ! Creation Timestamp
  1366309029,                             ! Version Timestamp
  {07b1fedd-b1f7-42c1-81e8-5f69656603fb}; ! Name of Object 1

