
OS:Version,
  {49577b40-309a-4cd7-a7aa-428d4f9fa931}, ! Handle
  0.9.3;                                  ! Version Identifier

OS:SizingPeriod:DesignDay,
  {b85e3e71-0013-4e8b-90fd-09323cf7a246}, ! Handle
  Joplin Municipal Ap Ann Htg 99.6% Condns DB, ! Name
  -14.5,                                  ! Maximum Dry-Bulb Temperature {C}
  0,                                      ! Daily Dry-Bulb Temperature Range {deltaC}
  -14.5,                                  ! Humidity Indicating Conditions at Maximum Dry-Bulb {BasedOnField A3}
  97808,                                  ! Barometric Pressure {Pa}
  3.8,                                    ! Wind Speed {m/s}
  350,                                    ! Wind Direction {deg}
  0,                                      ! Sky Clearness
  0,                                      ! Rain Indicator
  0,                                      ! Snow Indicator
  21,                                     ! Day of Month
  1,                                      ! Month
  WinterDesignDay,                        ! Day Type
  0,                                      ! Daylight Saving Time Indicator
  Wetbulb,                                ! Humidity Indicating Type
  ,                                       ! Humidity Indicating Day Schedule Name
  DefaultMultipliers,                     ! Dry-Bulb Temperature Range Modifier Type
  ,                                       ! Dry-Bulb Temperature Range Modifier Schedule Name
  ASHRAEClearSky;                         ! Solar Model Indicator

OS:ComponentData,
  {a014e65a-8784-4095-a14f-c2a44bd91a68}, ! Handle
  Component Data 1,                       ! Name
  {57313db2-b200-4cd8-bd3f-ea01af196d84}, ! UUID
  {6f671317-fd9a-4a92-96c6-b5df2fe97693}, ! Version UUID
  1366308506,                             ! Creation Timestamp
  1366308506,                             ! Version Timestamp
  {b85e3e71-0013-4e8b-90fd-09323cf7a246}; ! Name of Object 1

