
OS:Version,
  {029700ac-5406-4fad-9839-f37a78156ed5}, ! Handle
  0.9.3;                                  ! Version Identifier

OS:SizingPeriod:DesignDay,
  {a298b5f8-844c-49d7-998e-58c6cda57add}, ! Handle
  Hickory Regional Ap Ann Clg 1% Condns Enth=>MDB, ! Name
  29.5,                                   ! Maximum Dry-Bulb Temperature {C}
  10.3,                                   ! Daily Dry-Bulb Temperature Range {deltaC}
  73500,                                  ! Humidity Indicating Conditions at Maximum Dry-Bulb {BasedOnField A3}
  97214,                                  ! Barometric Pressure {Pa}
  3.4,                                    ! Wind Speed {m/s}
  280,                                    ! Wind Direction {deg}
  0,                                      ! Sky Clearness
  0,                                      ! Rain Indicator
  0,                                      ! Snow Indicator
  21,                                     ! Day of Month
  7,                                      ! Month
  SummerDesignDay,                        ! Day Type
  0,                                      ! Daylight Saving Time Indicator
  Enthalpy,                               ! Humidity Indicating Type
  ,                                       ! Humidity Indicating Day Schedule Name
  DefaultMultipliers,                     ! Dry-Bulb Temperature Range Modifier Type
  ,                                       ! Dry-Bulb Temperature Range Modifier Schedule Name
  ASHRAETau,                              ! Solar Model Indicator
  ,                                       ! Beam Solar Day Schedule Name
  ,                                       ! Diffuse Solar Day Schedule Name
  0.542,                                  ! ASHRAE Taub {dimensionless}
  1.787;                                  ! ASHRAE Taud {dimensionless}

OS:ComponentData,
  {b73196d6-fe56-460e-8eb5-854eb6325411}, ! Handle
  Component Data 1,                       ! Name
  {4889697f-788c-41b7-b9d9-cf3f85ffdf61}, ! UUID
  {be254a09-2199-4b37-b625-3530b040ad92}, ! Version UUID
  1366308942,                             ! Creation Timestamp
  1366308942,                             ! Version Timestamp
  {a298b5f8-844c-49d7-998e-58c6cda57add}; ! Name of Object 1

