
OS:Version,
  {51e40ed7-7f3d-4ae2-b8d5-8bc62bbd7c3f}, ! Handle
  0.9.3;                                  ! Version Identifier

OS:SizingPeriod:DesignDay,
  {ac30ee1e-1fc7-49c1-88c3-1eac3b49eb4e}, ! Handle
  King Salmon Ann Htg 99.6% Condns DB,    ! Name
  -31.4,                                  ! Maximum Dry-Bulb Temperature {C}
  0,                                      ! Daily Dry-Bulb Temperature Range {deltaC}
  -31.4,                                  ! Humidity Indicating Conditions at Maximum Dry-Bulb {BasedOnField A3}
  101145,                                 ! Barometric Pressure {Pa}
  2.4,                                    ! Wind Speed {m/s}
  10,                                     ! Wind Direction {deg}
  0,                                      ! Sky Clearness
  0,                                      ! Rain Indicator
  0,                                      ! Snow Indicator
  21,                                     ! Day of Month
  1,                                      ! Month
  WinterDesignDay,                        ! Day Type
  0,                                      ! Daylight Saving Time Indicator
  Wetbulb,                                ! Humidity Indicating Type
  ,                                       ! Humidity Indicating Day Schedule Name
  DefaultMultipliers,                     ! Dry-Bulb Temperature Range Modifier Type
  ,                                       ! Dry-Bulb Temperature Range Modifier Schedule Name
  ASHRAEClearSky;                         ! Solar Model Indicator

OS:ComponentData,
  {b5bd0735-aef0-4782-8200-77ad4adff743}, ! Handle
  Component Data 1,                       ! Name
  {70033544-9500-4945-81b8-3487544fb69b}, ! UUID
  {31fcd3be-d501-4f22-b6c2-0f4269a6085d}, ! Version UUID
  1366305361,                             ! Creation Timestamp
  1366305361,                             ! Version Timestamp
  {ac30ee1e-1fc7-49c1-88c3-1eac3b49eb4e}; ! Name of Object 1

