
OS:Version,
  {e83149ca-8f73-4b11-aea1-ef90e5265ec2}, ! Handle
  0.9.3;                                  ! Version Identifier

OS:SizingPeriod:DesignDay,
  {e1252366-3ae2-4cf7-8777-e62f1bc59e4a}, ! Handle
  CONCORD Ann Clg 1% Condns DP=>MDB,      ! Name
  25,                                     ! Maximum Dry-Bulb Temperature {C}
  12.8,                                   ! Daily Dry-Bulb Temperature Range {deltaC}
  21.2,                                   ! Humidity Indicating Conditions at Maximum Dry-Bulb {BasedOnField A3}
  100070,                                 ! Barometric Pressure {Pa}
  4.4,                                    ! Wind Speed {m/s}
  230,                                    ! Wind Direction {deg}
  0,                                      ! Sky Clearness
  0,                                      ! Rain Indicator
  0,                                      ! Snow Indicator
  21,                                     ! Day of Month
  7,                                      ! Month
  SummerDesignDay,                        ! Day Type
  0,                                      ! Daylight Saving Time Indicator
  Dewpoint,                               ! Humidity Indicating Type
  ,                                       ! Humidity Indicating Day Schedule Name
  DefaultMultipliers,                     ! Dry-Bulb Temperature Range Modifier Type
  ,                                       ! Dry-Bulb Temperature Range Modifier Schedule Name
  ASHRAETau,                              ! Solar Model Indicator
  ,                                       ! Beam Solar Day Schedule Name
  ,                                       ! Diffuse Solar Day Schedule Name
  0.459,                                  ! ASHRAE Taub {dimensionless}
  2.014;                                  ! ASHRAE Taud {dimensionless}

OS:ComponentData,
  {928e485d-a623-4389-bcd0-49c639df5261}, ! Handle
  Component Data 1,                       ! Name
  {b7ec2665-80ed-43c2-8aa0-d3ece6b59e8b}, ! UUID
  {d6d63a66-cdd1-48b6-9078-cef59a87d7bf}, ! Version UUID
  1366309222,                             ! Creation Timestamp
  1366309222,                             ! Version Timestamp
  {e1252366-3ae2-4cf7-8777-e62f1bc59e4a}; ! Name of Object 1

