
OS:Version,
  {955d411a-c832-4a81-ac39-0d4797677aec}, ! Handle
  0.9.3;                                  ! Version Identifier

OS:SizingPeriod:DesignDay,
  {94674bcb-050a-4dc8-af29-cfd6538cae4d}, ! Handle
  Denver-Stapleton Ann Htg 99% Condns DB, ! Name
  -16,                                    ! Maximum Dry-Bulb Temperature {C}
  0,                                      ! Daily Dry-Bulb Temperature Range {deltaC}
  -16,                                    ! Humidity Indicating Conditions at Maximum Dry-Bulb {BasedOnField A3}
  83411,                                  ! Barometric Pressure {Pa}
  2.3,                                    ! Wind Speed {m/s}
  180,                                    ! Wind Direction {deg}
  0,                                      ! Sky Clearness
  0,                                      ! Rain Indicator
  0,                                      ! Snow Indicator
  21,                                     ! Day of Month
  12,                                     ! Month
  WinterDesignDay,                        ! Day Type
  0,                                      ! Daylight Saving Time Indicator
  Wetbulb,                                ! Humidity Indicating Type
  ,                                       ! Humidity Indicating Day Schedule Name
  DefaultMultipliers,                     ! Dry-Bulb Temperature Range Modifier Type
  ,                                       ! Dry-Bulb Temperature Range Modifier Schedule Name
  ASHRAEClearSky;                         ! Solar Model Indicator

OS:ComponentData,
  {dbad6f5a-2e19-4c07-8bcb-26afe516c7e7}, ! Handle
  Component Data 1,                       ! Name
  {a7babfa4-8789-4389-9ea9-35af7140ed6d}, ! UUID
  {14955e2d-9e87-40be-95f8-51411f9b4c4f}, ! Version UUID
  1366306673,                             ! Creation Timestamp
  1366306673,                             ! Version Timestamp
  {94674bcb-050a-4dc8-af29-cfd6538cae4d}; ! Name of Object 1

