
OS:Version,
  {6af87d97-afc1-437d-a14e-d820a271298d}, ! Handle
  0.9.3;                                  ! Version Identifier

OS:SizingPeriod:DesignDay,
  {dce90522-3ae7-476c-a92c-3885fa35ee4a}, ! Handle
  Aurora Buckley Field Angb Ann Htg 99.6% Condns DB, ! Name
  -17.9,                                  ! Maximum Dry-Bulb Temperature {C}
  0,                                      ! Daily Dry-Bulb Temperature Range {deltaC}
  -17.9,                                  ! Humidity Indicating Conditions at Maximum Dry-Bulb {BasedOnField A3}
  82237,                                  ! Barometric Pressure {Pa}
  2.5,                                    ! Wind Speed {m/s}
  180,                                    ! Wind Direction {deg}
  0,                                      ! Sky Clearness
  0,                                      ! Rain Indicator
  0,                                      ! Snow Indicator
  21,                                     ! Day of Month
  12,                                     ! Month
  WinterDesignDay,                        ! Day Type
  0,                                      ! Daylight Saving Time Indicator
  Wetbulb,                                ! Humidity Indicating Type
  ,                                       ! Humidity Indicating Day Schedule Name
  DefaultMultipliers,                     ! Dry-Bulb Temperature Range Modifier Type
  ,                                       ! Dry-Bulb Temperature Range Modifier Schedule Name
  ASHRAEClearSky;                         ! Solar Model Indicator

OS:ComponentData,
  {fd4a416d-02c6-4964-b350-d7ffa91acd97}, ! Handle
  Component Data 1,                       ! Name
  {df3484b6-534f-4276-b636-4fe9c0d6fb91}, ! UUID
  {255209c5-09c5-4396-b614-b17a783f3536}, ! Version UUID
  1366306652,                             ! Creation Timestamp
  1366306652,                             ! Version Timestamp
  {dce90522-3ae7-476c-a92c-3885fa35ee4a}; ! Name of Object 1

