
OS:Version,
  {2c3f884b-763a-4ead-a1c2-cca35c797c47}, ! Handle
  0.9.3;                                  ! Version Identifier

OS:SizingPeriod:DesignDay,
  {afdf5056-9639-4bc0-a620-3d7d1f5ec505}, ! Handle
  CHICAGO Ann Htg Wind 99.6% Condns WS=>MCDB, ! Name
  -3.5,                                   ! Maximum Dry-Bulb Temperature {C}
  0,                                      ! Daily Dry-Bulb Temperature Range {deltaC}
  -3.5,                                   ! Humidity Indicating Conditions at Maximum Dry-Bulb {BasedOnField A3}
  99063,                                  ! Barometric Pressure {Pa}
  12.4,                                   ! Wind Speed {m/s}
  270,                                    ! Wind Direction {deg}
  0,                                      ! Sky Clearness
  0,                                      ! Rain Indicator
  0,                                      ! Snow Indicator
  21,                                     ! Day of Month
  1,                                      ! Month
  WinterDesignDay,                        ! Day Type
  0,                                      ! Daylight Saving Time Indicator
  Wetbulb,                                ! Humidity Indicating Type
  ,                                       ! Humidity Indicating Day Schedule Name
  DefaultMultipliers,                     ! Dry-Bulb Temperature Range Modifier Type
  ,                                       ! Dry-Bulb Temperature Range Modifier Schedule Name
  ASHRAEClearSky;                         ! Solar Model Indicator

OS:ComponentData,
  {cd0e3792-5216-4340-84b3-6851228c38d0}, ! Handle
  Component Data 1,                       ! Name
  {8c205496-110e-4040-a42a-14e92678850c}, ! UUID
  {4b15f0b4-a067-4452-b66e-27af47b024fa}, ! Version UUID
  1366307346,                             ! Creation Timestamp
  1366307346,                             ! Version Timestamp
  {afdf5056-9639-4bc0-a620-3d7d1f5ec505}; ! Name of Object 1

