
OS:Version,
  {affd30bb-f38f-438c-81e0-0a0918332444}, ! Handle
  0.9.3;                                  ! Version Identifier

OS:SizingPeriod:DesignDay,
  {043536a3-e714-4f29-aca5-2039071220e4}, ! Handle
  Juneau IntL Arpt Ann Clg 2% Condns WB=>MDB, ! Name
  18,                                     ! Maximum Dry-Bulb Temperature {C}
  7.3,                                    ! Daily Dry-Bulb Temperature Range {deltaC}
  14.5,                                   ! Humidity Indicating Conditions at Maximum Dry-Bulb {BasedOnField A3}
  101277,                                 ! Barometric Pressure {Pa}
  3.7,                                    ! Wind Speed {m/s}
  230,                                    ! Wind Direction {deg}
  0,                                      ! Sky Clearness
  0,                                      ! Rain Indicator
  0,                                      ! Snow Indicator
  21,                                     ! Day of Month
  7,                                      ! Month
  SummerDesignDay,                        ! Day Type
  0,                                      ! Daylight Saving Time Indicator
  Wetbulb,                                ! Humidity Indicating Type
  ,                                       ! Humidity Indicating Day Schedule Name
  DefaultMultipliers,                     ! Dry-Bulb Temperature Range Modifier Type
  ,                                       ! Dry-Bulb Temperature Range Modifier Schedule Name
  ASHRAETau,                              ! Solar Model Indicator
  ,                                       ! Beam Solar Day Schedule Name
  ,                                       ! Diffuse Solar Day Schedule Name
  0.43,                                   ! ASHRAE Taub {dimensionless}
  1.968;                                  ! ASHRAE Taud {dimensionless}

OS:ComponentData,
  {627d26e8-b76c-40c3-a809-c9b276f71c92}, ! Handle
  Component Data 1,                       ! Name
  {a576a855-f4b8-46b5-bb5c-d97c9fb0dde0}, ! UUID
  {d632885e-c069-42a2-8479-944df91f4f3c}, ! Version UUID
  1366305339,                             ! Creation Timestamp
  1366305339,                             ! Version Timestamp
  {043536a3-e714-4f29-aca5-2039071220e4}; ! Name of Object 1

