
OS:Version,
  {3f9c63f2-25e5-42ee-9d5d-8cb6b5582b17}, ! Handle
  0.9.3;                                  ! Version Identifier

OS:SizingPeriod:DesignDay,
  {93f6f259-d3bb-4ee4-a842-25e840533f08}, ! Handle
  Ironwood  Awos Ann Htg Wind 99% Condns WS=>MCDB, ! Name
  -9.7,                                   ! Maximum Dry-Bulb Temperature {C}
  0,                                      ! Daily Dry-Bulb Temperature Range {deltaC}
  -9.7,                                   ! Humidity Indicating Conditions at Maximum Dry-Bulb {BasedOnField A3}
  96900,                                  ! Barometric Pressure {Pa}
  9.5,                                    ! Wind Speed {m/s}
  250,                                    ! Wind Direction {deg}
  0,                                      ! Sky Clearness
  0,                                      ! Rain Indicator
  0,                                      ! Snow Indicator
  21,                                     ! Day of Month
  1,                                      ! Month
  WinterDesignDay,                        ! Day Type
  0,                                      ! Daylight Saving Time Indicator
  Wetbulb,                                ! Humidity Indicating Type
  ,                                       ! Humidity Indicating Day Schedule Name
  DefaultMultipliers,                     ! Dry-Bulb Temperature Range Modifier Type
  ,                                       ! Dry-Bulb Temperature Range Modifier Schedule Name
  ASHRAEClearSky;                         ! Solar Model Indicator

OS:ComponentData,
  {3716e4e7-08b6-48c2-9f5f-97091bd5a161}, ! Handle
  Component Data 1,                       ! Name
  {61de9ea8-66a8-4bb9-b377-68485fec7cd0}, ! UUID
  {7685197d-bfe3-474d-9503-45b207cfdeb3}, ! Version UUID
  1366308040,                             ! Creation Timestamp
  1366308040,                             ! Version Timestamp
  {93f6f259-d3bb-4ee4-a842-25e840533f08}; ! Name of Object 1

