
OS:Version,
  {5f2b07f2-62ba-4404-aac8-ae0d06930a35}, ! Handle
  0.9.3;                                  ! Version Identifier

OS:SizingPeriod:DesignDay,
  {c0a05d68-7959-49ca-889d-8e7981bfa471}, ! Handle
  Lancaster Gen Wm Fox Field Ann Clg .4% Condns DP=>MDB, ! Name
  26.9,                                   ! Maximum Dry-Bulb Temperature {C}
  16,                                     ! Daily Dry-Bulb Temperature Range {deltaC}
  16.3,                                   ! Humidity Indicating Conditions at Maximum Dry-Bulb {BasedOnField A3}
  93048,                                  ! Barometric Pressure {Pa}
  6.5,                                    ! Wind Speed {m/s}
  240,                                    ! Wind Direction {deg}
  0,                                      ! Sky Clearness
  0,                                      ! Rain Indicator
  0,                                      ! Snow Indicator
  21,                                     ! Day of Month
  7,                                      ! Month
  SummerDesignDay,                        ! Day Type
  0,                                      ! Daylight Saving Time Indicator
  Dewpoint,                               ! Humidity Indicating Type
  ,                                       ! Humidity Indicating Day Schedule Name
  DefaultMultipliers,                     ! Dry-Bulb Temperature Range Modifier Type
  ,                                       ! Dry-Bulb Temperature Range Modifier Schedule Name
  ASHRAETau,                              ! Solar Model Indicator
  ,                                       ! Beam Solar Day Schedule Name
  ,                                       ! Diffuse Solar Day Schedule Name
  0.431,                                  ! ASHRAE Taub {dimensionless}
  2.057;                                  ! ASHRAE Taud {dimensionless}

OS:ComponentData,
  {c7693515-716c-47c6-a4e9-035596cd3b84}, ! Handle
  Component Data 1,                       ! Name
  {b631ead8-ae8e-48e8-b000-bf26ab56323e}, ! UUID
  {b7e3f49e-53e3-42d4-a36d-17eebf8675cb}, ! Version UUID
  1366306457,                             ! Creation Timestamp
  1366306457,                             ! Version Timestamp
  {c0a05d68-7959-49ca-889d-8e7981bfa471}; ! Name of Object 1

