
OS:Version,
  {80cb0331-2dfe-4a2f-a051-f4d56612f051}, ! Handle
  0.9.3;                                  ! Version Identifier

OS:SizingPeriod:DesignDay,
  {d36bbf61-9284-471b-a26e-b1d47d3f40ca}, ! Handle
  Camp Pendleton Mcas Ann Clg 1% Condns WB=>MDB, ! Name
  27.8,                                   ! Maximum Dry-Bulb Temperature {C}
  11.1,                                   ! Daily Dry-Bulb Temperature Range {deltaC}
  21.4,                                   ! Humidity Indicating Conditions at Maximum Dry-Bulb {BasedOnField A3}
  101049,                                 ! Barometric Pressure {Pa}
  4.2,                                    ! Wind Speed {m/s}
  210,                                    ! Wind Direction {deg}
  0,                                      ! Sky Clearness
  0,                                      ! Rain Indicator
  0,                                      ! Snow Indicator
  21,                                     ! Day of Month
  8,                                      ! Month
  SummerDesignDay,                        ! Day Type
  0,                                      ! Daylight Saving Time Indicator
  Wetbulb,                                ! Humidity Indicating Type
  ,                                       ! Humidity Indicating Day Schedule Name
  DefaultMultipliers,                     ! Dry-Bulb Temperature Range Modifier Type
  ,                                       ! Dry-Bulb Temperature Range Modifier Schedule Name
  ASHRAETau,                              ! Solar Model Indicator
  ,                                       ! Beam Solar Day Schedule Name
  ,                                       ! Diffuse Solar Day Schedule Name
  0.432,                                  ! ASHRAE Taub {dimensionless}
  2.16;                                   ! ASHRAE Taud {dimensionless}

OS:ComponentData,
  {0af2da44-3b95-4779-9a05-a5bc26d5b9c4}, ! Handle
  Component Data 1,                       ! Name
  {d62eee94-ba0f-47eb-9099-f1ce88391e3c}, ! UUID
  {addb7259-5448-4e54-aed6-693b229b5447}, ! Version UUID
  1366306399,                             ! Creation Timestamp
  1366306399,                             ! Version Timestamp
  {d36bbf61-9284-471b-a26e-b1d47d3f40ca}; ! Name of Object 1

