
OS:Version,
  {66cf1e75-821c-41f9-8a0d-5642a400f78d}, ! Handle
  0.9.3;                                  ! Version Identifier

OS:SizingPeriod:DesignDay,
  {905f0046-8cf9-4ba8-a205-299e217941d5}, ! Handle
  Lexington Bluegrass Ap Ann Clg 2% Condns Enth=>MDB, ! Name
  28.8,                                   ! Maximum Dry-Bulb Temperature {C}
  10.2,                                   ! Daily Dry-Bulb Temperature Range {deltaC}
  72700,                                  ! Humidity Indicating Conditions at Maximum Dry-Bulb {BasedOnField A3}
  97843,                                  ! Barometric Pressure {Pa}
  3.7,                                    ! Wind Speed {m/s}
  250,                                    ! Wind Direction {deg}
  0,                                      ! Sky Clearness
  0,                                      ! Rain Indicator
  0,                                      ! Snow Indicator
  21,                                     ! Day of Month
  7,                                      ! Month
  SummerDesignDay,                        ! Day Type
  0,                                      ! Daylight Saving Time Indicator
  Enthalpy,                               ! Humidity Indicating Type
  ,                                       ! Humidity Indicating Day Schedule Name
  DefaultMultipliers,                     ! Dry-Bulb Temperature Range Modifier Type
  ,                                       ! Dry-Bulb Temperature Range Modifier Schedule Name
  ASHRAETau,                              ! Solar Model Indicator
  ,                                       ! Beam Solar Day Schedule Name
  ,                                       ! Diffuse Solar Day Schedule Name
  0.503,                                  ! ASHRAE Taub {dimensionless}
  1.885;                                  ! ASHRAE Taud {dimensionless}

OS:ComponentData,
  {a9480301-5231-4d79-9c1c-5640ea7202ae}, ! Handle
  Component Data 1,                       ! Name
  {d3ca6d88-bcb6-4baa-8922-3b924c6b18c2}, ! UUID
  {28eafe6f-f326-455b-84d2-3bfe4202ea50}, ! Version UUID
  1366307653,                             ! Creation Timestamp
  1366307653,                             ! Version Timestamp
  {905f0046-8cf9-4ba8-a205-299e217941d5}; ! Name of Object 1

