
OS:Version,
  {07c57bc2-4dde-412f-bcd1-1fb272536e8a}, ! Handle
  0.9.3;                                  ! Version Identifier

OS:SizingPeriod:DesignDay,
  {d3bc9c72-3446-4d1f-af0b-19b1ce032765}, ! Handle
  Greer/Greenville Ann Clg 1% Condns WB=>MDB, ! Name
  30.2,                                   ! Maximum Dry-Bulb Temperature {C}
  10.6,                                   ! Daily Dry-Bulb Temperature Range {deltaC}
  24.4,                                   ! Humidity Indicating Conditions at Maximum Dry-Bulb {BasedOnField A3}
  97819,                                  ! Barometric Pressure {Pa}
  3.6,                                    ! Wind Speed {m/s}
  230,                                    ! Wind Direction {deg}
  0,                                      ! Sky Clearness
  0,                                      ! Rain Indicator
  0,                                      ! Snow Indicator
  21,                                     ! Day of Month
  7,                                      ! Month
  SummerDesignDay,                        ! Day Type
  0,                                      ! Daylight Saving Time Indicator
  Wetbulb,                                ! Humidity Indicating Type
  ,                                       ! Humidity Indicating Day Schedule Name
  DefaultMultipliers,                     ! Dry-Bulb Temperature Range Modifier Type
  ,                                       ! Dry-Bulb Temperature Range Modifier Schedule Name
  ASHRAETau,                              ! Solar Model Indicator
  ,                                       ! Beam Solar Day Schedule Name
  ,                                       ! Diffuse Solar Day Schedule Name
  0.545,                                  ! ASHRAE Taub {dimensionless}
  1.796;                                  ! ASHRAE Taud {dimensionless}

OS:ComponentData,
  {d0d3fbbf-875a-4d6b-998c-dcffa5523788}, ! Handle
  Component Data 1,                       ! Name
  {e80688ac-dd65-47ac-bb51-023375e20f51}, ! UUID
  {66b964e6-7510-41d0-97ef-2b96624b5425}, ! Version UUID
  1366310363,                             ! Creation Timestamp
  1366310363,                             ! Version Timestamp
  {d3bc9c72-3446-4d1f-af0b-19b1ce032765}; ! Name of Object 1

