
OS:Version,
  {9a933513-1d72-4962-8d7a-e967a31b4094}, ! Handle
  0.9.3;                                  ! Version Identifier

OS:SizingPeriod:DesignDay,
  {72f2decf-7416-40a7-8673-b90fa759fb23}, ! Handle
  DES_MOINES Ann Clg .4% Condns DB=>MWB,  ! Name
  34.1,                                   ! Maximum Dry-Bulb Temperature {C}
  10.1,                                   ! Daily Dry-Bulb Temperature Range {deltaC}
  24.6,                                   ! Humidity Indicating Conditions at Maximum Dry-Bulb {BasedOnField A3}
  97843,                                  ! Barometric Pressure {Pa}
  5.4,                                    ! Wind Speed {m/s}
  180,                                    ! Wind Direction {deg}
  0,                                      ! Sky Clearness
  0,                                      ! Rain Indicator
  0,                                      ! Snow Indicator
  21,                                     ! Day of Month
  7,                                      ! Month
  SummerDesignDay,                        ! Day Type
  0,                                      ! Daylight Saving Time Indicator
  Wetbulb,                                ! Humidity Indicating Type
  ,                                       ! Humidity Indicating Day Schedule Name
  DefaultMultipliers,                     ! Dry-Bulb Temperature Range Modifier Type
  ,                                       ! Dry-Bulb Temperature Range Modifier Schedule Name
  ASHRAETau,                              ! Solar Model Indicator
  ,                                       ! Beam Solar Day Schedule Name
  ,                                       ! Diffuse Solar Day Schedule Name
  0.425,                                  ! ASHRAE Taub {dimensionless}
  2.17;                                   ! ASHRAE Taud {dimensionless}

OS:ComponentData,
  {d137d803-2632-4d90-9d2b-248f4f7e8f6b}, ! Handle
  Component Data 1,                       ! Name
  {e96a9037-c84d-4729-bd18-a4fe0f2e271c}, ! UUID
  {85a89b91-0797-48c1-8b63-2461aedc1b24}, ! Version UUID
  1366307169,                             ! Creation Timestamp
  1366307169,                             ! Version Timestamp
  {72f2decf-7416-40a7-8673-b90fa759fb23}; ! Name of Object 1

