
OS:Version,
  {ac64a731-b198-4c71-8234-38caf7541383}, ! Handle
  0.9.3;                                  ! Version Identifier

OS:SizingPeriod:DesignDay,
  {f3a446a7-1417-4309-adef-191820aa2089}, ! Handle
  BUFFALO Ann Clg 2% Condns DB=>MWB,      ! Name
  27.6,                                   ! Maximum Dry-Bulb Temperature {C}
  9.3,                                    ! Daily Dry-Bulb Temperature Range {deltaC}
  20.5,                                   ! Humidity Indicating Conditions at Maximum Dry-Bulb {BasedOnField A3}
  98769,                                  ! Barometric Pressure {Pa}
  5.7,                                    ! Wind Speed {m/s}
  240,                                    ! Wind Direction {deg}
  0,                                      ! Sky Clearness
  0,                                      ! Rain Indicator
  0,                                      ! Snow Indicator
  21,                                     ! Day of Month
  7,                                      ! Month
  SummerDesignDay,                        ! Day Type
  0,                                      ! Daylight Saving Time Indicator
  Wetbulb,                                ! Humidity Indicating Type
  ,                                       ! Humidity Indicating Day Schedule Name
  DefaultMultipliers,                     ! Dry-Bulb Temperature Range Modifier Type
  ,                                       ! Dry-Bulb Temperature Range Modifier Schedule Name
  ASHRAETau,                              ! Solar Model Indicator
  ,                                       ! Beam Solar Day Schedule Name
  ,                                       ! Diffuse Solar Day Schedule Name
  0.462,                                  ! ASHRAE Taub {dimensionless}
  2.001;                                  ! ASHRAE Taud {dimensionless}

OS:ComponentData,
  {a048df0f-9b0e-43ca-b600-c74621ae65b2}, ! Handle
  Component Data 1,                       ! Name
  {814792ec-7247-4c9b-8da3-60c7d14f3709}, ! UUID
  {26cf8748-da92-4204-8c8a-7839322c1b60}, ! Version UUID
  1366309612,                             ! Creation Timestamp
  1366309612,                             ! Version Timestamp
  {f3a446a7-1417-4309-adef-191820aa2089}; ! Name of Object 1

