
OS:Version,
  {242958f4-2d7b-4cf6-9480-c51f6018601f}, ! Handle
  0.9.3;                                  ! Version Identifier

OS:SizingPeriod:DesignDay,
  {e32b3c66-ef27-4ffa-928d-713d5af6772e}, ! Handle
  Binghamton Edwin A Link Field Ann Htg Wind 99.6% Condns WS=>MCDB, ! Name
  -5.2,                                   ! Maximum Dry-Bulb Temperature {C}
  0,                                      ! Daily Dry-Bulb Temperature Range {deltaC}
  -5.2,                                   ! Humidity Indicating Conditions at Maximum Dry-Bulb {BasedOnField A3}
  95598,                                  ! Barometric Pressure {Pa}
  11.4,                                   ! Wind Speed {m/s}
  250,                                    ! Wind Direction {deg}
  0,                                      ! Sky Clearness
  0,                                      ! Rain Indicator
  0,                                      ! Snow Indicator
  21,                                     ! Day of Month
  1,                                      ! Month
  WinterDesignDay,                        ! Day Type
  0,                                      ! Daylight Saving Time Indicator
  Wetbulb,                                ! Humidity Indicating Type
  ,                                       ! Humidity Indicating Day Schedule Name
  DefaultMultipliers,                     ! Dry-Bulb Temperature Range Modifier Type
  ,                                       ! Dry-Bulb Temperature Range Modifier Schedule Name
  ASHRAEClearSky;                         ! Solar Model Indicator

OS:ComponentData,
  {cf1707e6-8806-4d2e-b1d8-2ce9db1ba2c4}, ! Handle
  Component Data 1,                       ! Name
  {2fd73559-4a7d-4e12-bd61-71f1a92f9dfb}, ! UUID
  {6dadb544-20bc-41c4-bb3e-1835c94c0bed}, ! Version UUID
  1366309592,                             ! Creation Timestamp
  1366309592,                             ! Version Timestamp
  {e32b3c66-ef27-4ffa-928d-713d5af6772e}; ! Name of Object 1

