
OS:Version,
  {f297ca96-6919-44b2-aadb-b6aad489c9a9}, ! Handle
  0.9.3;                                  ! Version Identifier

OS:SizingPeriod:DesignDay,
  {1805154d-e202-4898-a38f-31c99d012260}, ! Handle
  Hibbing Chisholm Hibbing Ap Ann Clg .4% Condns DP=>MDB, ! Name
  25.8,                                   ! Maximum Dry-Bulb Temperature {C}
  13,                                     ! Daily Dry-Bulb Temperature Range {deltaC}
  21.1,                                   ! Humidity Indicating Conditions at Maximum Dry-Bulb {BasedOnField A3}
  96484,                                  ! Barometric Pressure {Pa}
  4.9,                                    ! Wind Speed {m/s}
  200,                                    ! Wind Direction {deg}
  0,                                      ! Sky Clearness
  0,                                      ! Rain Indicator
  0,                                      ! Snow Indicator
  21,                                     ! Day of Month
  7,                                      ! Month
  SummerDesignDay,                        ! Day Type
  0,                                      ! Daylight Saving Time Indicator
  Dewpoint,                               ! Humidity Indicating Type
  ,                                       ! Humidity Indicating Day Schedule Name
  DefaultMultipliers,                     ! Dry-Bulb Temperature Range Modifier Type
  ,                                       ! Dry-Bulb Temperature Range Modifier Schedule Name
  ASHRAETau,                              ! Solar Model Indicator
  ,                                       ! Beam Solar Day Schedule Name
  ,                                       ! Diffuse Solar Day Schedule Name
  0.401,                                  ! ASHRAE Taub {dimensionless}
  2.2;                                    ! ASHRAE Taud {dimensionless}

OS:ComponentData,
  {ff1d3e2c-1724-4e45-ae3b-d714079ab5df}, ! Handle
  Component Data 1,                       ! Name
  {dd3974c8-00cc-4c09-8152-3cc9e43166e9}, ! UUID
  {f042f557-14f1-4dfe-ade0-a18d2e0ec53f}, ! Version UUID
  1366308256,                             ! Creation Timestamp
  1366308256,                             ! Version Timestamp
  {1805154d-e202-4898-a38f-31c99d012260}; ! Name of Object 1

