
OS:Version,
  {240f9e14-30b0-4638-9a7c-d52454c668fd}, ! Handle
  0.9.3;                                  ! Version Identifier

OS:SizingPeriod:DesignDay,
  {f2aee983-0360-4ad8-9dcd-a25b1b968ca6}, ! Handle
  Arcata/Eureka Ann Clg 1% Condns DB=>MWB, ! Name
  19.9,                                   ! Maximum Dry-Bulb Temperature {C}
  6.5,                                    ! Daily Dry-Bulb Temperature Range {deltaC}
  15.1,                                   ! Humidity Indicating Conditions at Maximum Dry-Bulb {BasedOnField A3}
  100535,                                 ! Barometric Pressure {Pa}
  4.3,                                    ! Wind Speed {m/s}
  320,                                    ! Wind Direction {deg}
  0,                                      ! Sky Clearness
  0,                                      ! Rain Indicator
  0,                                      ! Snow Indicator
  21,                                     ! Day of Month
  8,                                      ! Month
  SummerDesignDay,                        ! Day Type
  0,                                      ! Daylight Saving Time Indicator
  Wetbulb,                                ! Humidity Indicating Type
  ,                                       ! Humidity Indicating Day Schedule Name
  DefaultMultipliers,                     ! Dry-Bulb Temperature Range Modifier Type
  ,                                       ! Dry-Bulb Temperature Range Modifier Schedule Name
  ASHRAETau,                              ! Solar Model Indicator
  ,                                       ! Beam Solar Day Schedule Name
  ,                                       ! Diffuse Solar Day Schedule Name
  0.365,                                  ! ASHRAE Taub {dimensionless}
  2.513;                                  ! ASHRAE Taud {dimensionless}

OS:ComponentData,
  {d78e09bb-c09f-4ef3-a70d-0e39bef8acd7}, ! Handle
  Component Data 1,                       ! Name
  {daaaab71-7919-4d93-930a-6883536288f8}, ! UUID
  {ade8b27b-2a9e-411f-9a3c-9a9c0cc75cb1}, ! Version UUID
  1366306348,                             ! Creation Timestamp
  1366306348,                             ! Version Timestamp
  {f2aee983-0360-4ad8-9dcd-a25b1b968ca6}; ! Name of Object 1

