
OS:Version,
  {a8914b9b-5b3f-4ee1-83af-ca98d57db9c6}, ! Handle
  0.9.3;                                  ! Version Identifier

OS:SizingPeriod:DesignDay,
  {896dc5b5-cf14-42cc-bea2-e81ea8710407}, ! Handle
  Eveleth Muni  Awos Ann Clg 1% Condns WB=>MDB, ! Name
  26.3,                                   ! Maximum Dry-Bulb Temperature {C}
  13.1,                                   ! Daily Dry-Bulb Temperature Range {deltaC}
  21.7,                                   ! Humidity Indicating Conditions at Maximum Dry-Bulb {BasedOnField A3}
  96369,                                  ! Barometric Pressure {Pa}
  4.7,                                    ! Wind Speed {m/s}
  200,                                    ! Wind Direction {deg}
  0,                                      ! Sky Clearness
  0,                                      ! Rain Indicator
  0,                                      ! Snow Indicator
  21,                                     ! Day of Month
  7,                                      ! Month
  SummerDesignDay,                        ! Day Type
  0,                                      ! Daylight Saving Time Indicator
  Wetbulb,                                ! Humidity Indicating Type
  ,                                       ! Humidity Indicating Day Schedule Name
  DefaultMultipliers,                     ! Dry-Bulb Temperature Range Modifier Type
  ,                                       ! Dry-Bulb Temperature Range Modifier Schedule Name
  ASHRAETau,                              ! Solar Model Indicator
  ,                                       ! Beam Solar Day Schedule Name
  ,                                       ! Diffuse Solar Day Schedule Name
  0.403,                                  ! ASHRAE Taub {dimensionless}
  2.188;                                  ! ASHRAE Taud {dimensionless}

