
OS:Version,
  {eae61093-a390-4444-a5c8-5b9240eee05b}, ! Handle
  0.9.3;                                  ! Version Identifier

OS:SizingPeriod:DesignDay,
  {f4dae3e9-7cab-4711-bfd1-d43e1685688c}, ! Handle
  KALISPELL Ann Clg 1% Condns DB=>MWB,    ! Name
  30.2,                                   ! Maximum Dry-Bulb Temperature {C}
  17,                                     ! Daily Dry-Bulb Temperature Range {deltaC}
  16.5,                                   ! Humidity Indicating Conditions at Maximum Dry-Bulb {BasedOnField A3}
  90926,                                  ! Barometric Pressure {Pa}
  3.6,                                    ! Wind Speed {m/s}
  160,                                    ! Wind Direction {deg}
  0,                                      ! Sky Clearness
  0,                                      ! Rain Indicator
  0,                                      ! Snow Indicator
  21,                                     ! Day of Month
  7,                                      ! Month
  SummerDesignDay,                        ! Day Type
  0,                                      ! Daylight Saving Time Indicator
  Wetbulb,                                ! Humidity Indicating Type
  ,                                       ! Humidity Indicating Day Schedule Name
  DefaultMultipliers,                     ! Dry-Bulb Temperature Range Modifier Type
  ,                                       ! Dry-Bulb Temperature Range Modifier Schedule Name
  ASHRAETau,                              ! Solar Model Indicator
  ,                                       ! Beam Solar Day Schedule Name
  ,                                       ! Diffuse Solar Day Schedule Name
  0.355,                                  ! ASHRAE Taub {dimensionless}
  2.406;                                  ! ASHRAE Taud {dimensionless}

OS:ComponentData,
  {f905c490-333c-421f-9e5f-32e595f9f5a6}, ! Handle
  Component Data 1,                       ! Name
  {83692329-0998-4947-961e-360f53379125}, ! UUID
  {a1699d56-8352-41e7-b23a-a6d6fedc9cf3}, ! Version UUID
  1366308808,                             ! Creation Timestamp
  1366308808,                             ! Version Timestamp
  {f4dae3e9-7cab-4711-bfd1-d43e1685688c}; ! Name of Object 1

