
OS:Version,
  {69a955c6-0d81-44f6-a901-c9c0d93664a6}, ! Handle
  0.9.3;                                  ! Version Identifier

OS:SizingPeriod:DesignDay,
  {a973fb70-c82e-46cd-9078-e2d97e366d04}, ! Handle
  Ely Ann Htg 99% Condns DB,              ! Name
  -17.3,                                  ! Maximum Dry-Bulb Temperature {C}
  0,                                      ! Daily Dry-Bulb Temperature Range {deltaC}
  -17.3,                                  ! Humidity Indicating Conditions at Maximum Dry-Bulb {BasedOnField A3}
  80397,                                  ! Barometric Pressure {Pa}
  5,                                      ! Wind Speed {m/s}
  180,                                    ! Wind Direction {deg}
  0,                                      ! Sky Clearness
  0,                                      ! Rain Indicator
  0,                                      ! Snow Indicator
  21,                                     ! Day of Month
  12,                                     ! Month
  WinterDesignDay,                        ! Day Type
  0,                                      ! Daylight Saving Time Indicator
  Wetbulb,                                ! Humidity Indicating Type
  ,                                       ! Humidity Indicating Day Schedule Name
  DefaultMultipliers,                     ! Dry-Bulb Temperature Range Modifier Type
  ,                                       ! Dry-Bulb Temperature Range Modifier Schedule Name
  ASHRAEClearSky;                         ! Solar Model Indicator

OS:ComponentData,
  {52c4491e-19e9-4240-874e-6a5e0e3d8ff4}, ! Handle
  Component Data 1,                       ! Name
  {fa62ae8c-4921-4a59-8843-a90b1da16b74}, ! UUID
  {a2b83b2a-4516-4593-b6fe-8e5d1e428f6d}, ! Version UUID
  1366309470,                             ! Creation Timestamp
  1366309470,                             ! Version Timestamp
  {a973fb70-c82e-46cd-9078-e2d97e366d04}; ! Name of Object 1

