
OS:Version,
  {5023772c-4321-47a3-8be9-50bce97df8fd}, ! Handle
  0.9.3;                                  ! Version Identifier

OS:SizingPeriod:DesignDay,
  {7de10d5c-7f4d-4707-85d1-4ca7c84a4b4b}, ! Handle
  ALBUQUERQUE Ann Clg 2% Condns Enth=>MDB, ! Name
  26.6,                                   ! Maximum Dry-Bulb Temperature {C}
  13.5,                                   ! Daily Dry-Bulb Temperature Range {deltaC}
  55900,                                  ! Humidity Indicating Conditions at Maximum Dry-Bulb {BasedOnField A3}
  83328,                                  ! Barometric Pressure {Pa}
  4.4,                                    ! Wind Speed {m/s}
  220,                                    ! Wind Direction {deg}
  0,                                      ! Sky Clearness
  0,                                      ! Rain Indicator
  0,                                      ! Snow Indicator
  21,                                     ! Day of Month
  7,                                      ! Month
  SummerDesignDay,                        ! Day Type
  0,                                      ! Daylight Saving Time Indicator
  Enthalpy,                               ! Humidity Indicating Type
  ,                                       ! Humidity Indicating Day Schedule Name
  DefaultMultipliers,                     ! Dry-Bulb Temperature Range Modifier Type
  ,                                       ! Dry-Bulb Temperature Range Modifier Schedule Name
  ASHRAETau,                              ! Solar Model Indicator
  ,                                       ! Beam Solar Day Schedule Name
  ,                                       ! Diffuse Solar Day Schedule Name
  0.463,                                  ! ASHRAE Taub {dimensionless}
  1.887;                                  ! ASHRAE Taud {dimensionless}

OS:ComponentData,
  {8a7a2204-98fa-441e-bbe4-cc0291794aa8}, ! Handle
  Component Data 1,                       ! Name
  {9771fe8c-254e-4fa7-998d-e94b67ad4986}, ! UUID
  {de6752a5-7263-4cfa-b007-16cb1e37efee}, ! Version UUID
  1366309360,                             ! Creation Timestamp
  1366309360,                             ! Version Timestamp
  {7de10d5c-7f4d-4707-85d1-4ca7c84a4b4b}; ! Name of Object 1

