
OS:Version,
  {1ce34268-9bdc-4141-b6f1-62cee1886b32}, ! Handle
  0.9.3;                                  ! Version Identifier

OS:SizingPeriod:DesignDay,
  {c42961e0-6180-4fc2-aeb6-ddfc3dd3ebc6}, ! Handle
  Dover Afb Ann Htg Wind 99.6% Condns WS=>MCDB, ! Name
  3.6,                                    ! Maximum Dry-Bulb Temperature {C}
  0,                                      ! Daily Dry-Bulb Temperature Range {deltaC}
  3.6,                                    ! Humidity Indicating Conditions at Maximum Dry-Bulb {BasedOnField A3}
  101241,                                 ! Barometric Pressure {Pa}
  12.7,                                   ! Wind Speed {m/s}
  330,                                    ! Wind Direction {deg}
  0,                                      ! Sky Clearness
  0,                                      ! Rain Indicator
  0,                                      ! Snow Indicator
  21,                                     ! Day of Month
  1,                                      ! Month
  WinterDesignDay,                        ! Day Type
  0,                                      ! Daylight Saving Time Indicator
  Wetbulb,                                ! Humidity Indicating Type
  ,                                       ! Humidity Indicating Day Schedule Name
  DefaultMultipliers,                     ! Dry-Bulb Temperature Range Modifier Type
  ,                                       ! Dry-Bulb Temperature Range Modifier Schedule Name
  ASHRAEClearSky;                         ! Solar Model Indicator

OS:ComponentData,
  {3bb2dd5f-c322-4d52-906d-153eca3c810d}, ! Handle
  Component Data 1,                       ! Name
  {cd531f3c-1faf-44f0-9bb9-9d598fd174f7}, ! UUID
  {7e8d9fa8-a172-4b2a-bd4d-63a568db0ca7}, ! Version UUID
  1366306769,                             ! Creation Timestamp
  1366306769,                             ! Version Timestamp
  {c42961e0-6180-4fc2-aeb6-ddfc3dd3ebc6}; ! Name of Object 1

