
OS:Version,
  {236d037b-0652-41d5-9c32-d866513a790d}, ! Handle
  0.9.3;                                  ! Version Identifier

OS:SizingPeriod:DesignDay,
  {60992bfb-08d4-4cc0-9b93-e6933c2676e2}, ! Handle
  Joplin Municipal Ap Ann Clg .4% Condns Enth=>MDB, ! Name
  32.7,                                   ! Maximum Dry-Bulb Temperature {C}
  10.8,                                   ! Daily Dry-Bulb Temperature Range {deltaC}
  81700,                                  ! Humidity Indicating Conditions at Maximum Dry-Bulb {BasedOnField A3}
  97808,                                  ! Barometric Pressure {Pa}
  4.8,                                    ! Wind Speed {m/s}
  210,                                    ! Wind Direction {deg}
  0,                                      ! Sky Clearness
  0,                                      ! Rain Indicator
  0,                                      ! Snow Indicator
  21,                                     ! Day of Month
  7,                                      ! Month
  SummerDesignDay,                        ! Day Type
  0,                                      ! Daylight Saving Time Indicator
  Enthalpy,                               ! Humidity Indicating Type
  ,                                       ! Humidity Indicating Day Schedule Name
  DefaultMultipliers,                     ! Dry-Bulb Temperature Range Modifier Type
  ,                                       ! Dry-Bulb Temperature Range Modifier Schedule Name
  ASHRAETau,                              ! Solar Model Indicator
  ,                                       ! Beam Solar Day Schedule Name
  ,                                       ! Diffuse Solar Day Schedule Name
  0.446,                                  ! ASHRAE Taub {dimensionless}
  2.122;                                  ! ASHRAE Taud {dimensionless}

OS:ComponentData,
  {a1b6fdcd-2ca4-40c9-a520-61159a30f797}, ! Handle
  Component Data 1,                       ! Name
  {6f840b7c-6114-48da-9297-8736bca16d27}, ! UUID
  {675e7421-1c55-4fa5-86f5-42dd99200119}, ! Version UUID
  1366308509,                             ! Creation Timestamp
  1366308509,                             ! Version Timestamp
  {60992bfb-08d4-4cc0-9b93-e6933c2676e2}; ! Name of Object 1

