
OS:Version,
  {10793efa-73f7-4783-b6a1-77c574a09779}, ! Handle
  0.9.3;                                  ! Version Identifier

OS:SizingPeriod:DesignDay,
  {8183fd84-07b1-4f66-b37b-871f2e0ef23b}, ! Handle
  Alexandria Esler Regional Ap Ann Clg .4% Condns WB=>MDB, ! Name
  31.9,                                   ! Maximum Dry-Bulb Temperature {C}
  11.3,                                   ! Daily Dry-Bulb Temperature Range {deltaC}
  26.9,                                   ! Humidity Indicating Conditions at Maximum Dry-Bulb {BasedOnField A3}
  100917,                                 ! Barometric Pressure {Pa}
  3,                                      ! Wind Speed {m/s}
  60,                                     ! Wind Direction {deg}
  0,                                      ! Sky Clearness
  0,                                      ! Rain Indicator
  0,                                      ! Snow Indicator
  21,                                     ! Day of Month
  7,                                      ! Month
  SummerDesignDay,                        ! Day Type
  0,                                      ! Daylight Saving Time Indicator
  Wetbulb,                                ! Humidity Indicating Type
  ,                                       ! Humidity Indicating Day Schedule Name
  DefaultMultipliers,                     ! Dry-Bulb Temperature Range Modifier Type
  ,                                       ! Dry-Bulb Temperature Range Modifier Schedule Name
  ASHRAETau,                              ! Solar Model Indicator
  ,                                       ! Beam Solar Day Schedule Name
  ,                                       ! Diffuse Solar Day Schedule Name
  0.519,                                  ! ASHRAE Taub {dimensionless}
  1.913;                                  ! ASHRAE Taud {dimensionless}

OS:ComponentData,
  {cd7e9a26-7aac-4e0a-a083-0af6a58c94d9}, ! Handle
  Component Data 1,                       ! Name
  {8edd08a8-3232-4d87-a2eb-94148b9b43da}, ! UUID
  {fb886446-a30c-4519-a1a7-a277100769f9}, ! Version UUID
  1366307695,                             ! Creation Timestamp
  1366307695,                             ! Version Timestamp
  {8183fd84-07b1-4f66-b37b-871f2e0ef23b}; ! Name of Object 1

