
OS:Version,
  {3331f94e-4936-4c35-a6e0-9bcf8fc41054}, ! Handle
  0.9.3;                                  ! Version Identifier

OS:SizingPeriod:DesignDay,
  {ed373bc4-cceb-49bc-9e17-06149ae018da}, ! Handle
  Glasgow Intl Arpt Ann Clg .4% Condns DB=>MWB, ! Name
  35,                                     ! Maximum Dry-Bulb Temperature {C}
  14.5,                                   ! Daily Dry-Bulb Temperature Range {deltaC}
  18.3,                                   ! Humidity Indicating Conditions at Maximum Dry-Bulb {BasedOnField A3}
  93205,                                  ! Barometric Pressure {Pa}
  5.4,                                    ! Wind Speed {m/s}
  150,                                    ! Wind Direction {deg}
  0,                                      ! Sky Clearness
  0,                                      ! Rain Indicator
  0,                                      ! Snow Indicator
  21,                                     ! Day of Month
  7,                                      ! Month
  SummerDesignDay,                        ! Day Type
  0,                                      ! Daylight Saving Time Indicator
  Wetbulb,                                ! Humidity Indicating Type
  ,                                       ! Humidity Indicating Day Schedule Name
  DefaultMultipliers,                     ! Dry-Bulb Temperature Range Modifier Type
  ,                                       ! Dry-Bulb Temperature Range Modifier Schedule Name
  ASHRAETau,                              ! Solar Model Indicator
  ,                                       ! Beam Solar Day Schedule Name
  ,                                       ! Diffuse Solar Day Schedule Name
  0.424,                                  ! ASHRAE Taub {dimensionless}
  2.044;                                  ! ASHRAE Taud {dimensionless}

OS:ComponentData,
  {ae1aadc2-85b3-4815-b949-a88876df31e3}, ! Handle
  Component Data 1,                       ! Name
  {3bc0c418-f8a4-42aa-89f7-801dfadbba32}, ! UUID
  {a5c65e28-cb12-40a0-b168-44ebcc9d7863}, ! Version UUID
  1366308763,                             ! Creation Timestamp
  1366308763,                             ! Version Timestamp
  {ed373bc4-cceb-49bc-9e17-06149ae018da}; ! Name of Object 1

