
OS:Version,
  {ffe2f745-d3e0-497f-ad8e-cfd12c0d0cf6}, ! Handle
  0.9.3;                                  ! Version Identifier

OS:SizingPeriod:DesignDay,
  {a216b7a4-6609-4eb6-adc9-0214d7e35402}, ! Handle
  Little Rock Afb Ann Clg .4% Condns DB=>MWB, ! Name
  37.4,                                   ! Maximum Dry-Bulb Temperature {C}
  11.1,                                   ! Daily Dry-Bulb Temperature Range {deltaC}
  25.2,                                   ! Humidity Indicating Conditions at Maximum Dry-Bulb {BasedOnField A3}
  100094,                                 ! Barometric Pressure {Pa}
  3.5,                                    ! Wind Speed {m/s}
  190,                                    ! Wind Direction {deg}
  0,                                      ! Sky Clearness
  0,                                      ! Rain Indicator
  0,                                      ! Snow Indicator
  21,                                     ! Day of Month
  7,                                      ! Month
  SummerDesignDay,                        ! Day Type
  0,                                      ! Daylight Saving Time Indicator
  Wetbulb,                                ! Humidity Indicating Type
  ,                                       ! Humidity Indicating Day Schedule Name
  DefaultMultipliers,                     ! Dry-Bulb Temperature Range Modifier Type
  ,                                       ! Dry-Bulb Temperature Range Modifier Schedule Name
  ASHRAETau,                              ! Solar Model Indicator
  ,                                       ! Beam Solar Day Schedule Name
  ,                                       ! Diffuse Solar Day Schedule Name
  0.512,                                  ! ASHRAE Taub {dimensionless}
  1.909;                                  ! ASHRAE Taud {dimensionless}

OS:ComponentData,
  {be312b7b-8c90-42ab-be7c-d6281240f90a}, ! Handle
  Component Data 1,                       ! Name
  {2fb5d8a4-e66f-4307-859c-3c801afd03b6}, ! UUID
  {c2cd87d1-4e2f-48ee-a73c-1ff70f7eab2a}, ! Version UUID
  1366306235,                             ! Creation Timestamp
  1366306235,                             ! Version Timestamp
  {a216b7a4-6609-4eb6-adc9-0214d7e35402}; ! Name of Object 1

