
OS:Version,
  {c7cb8092-ced2-401f-be80-9d8972ab5923}, ! Handle
  0.9.3;                                  ! Version Identifier

OS:SizingPeriod:DesignDay,
  {d14984f1-c5be-4de3-89d8-8eca6afcf4ab}, ! Handle
  La Crosse Municipal Arpt Ann Clg .4% Condns DP=>MDB, ! Name
  28.9,                                   ! Maximum Dry-Bulb Temperature {C}
  11.1,                                   ! Daily Dry-Bulb Temperature Range {deltaC}
  23.9,                                   ! Humidity Indicating Conditions at Maximum Dry-Bulb {BasedOnField A3}
  98969,                                  ! Barometric Pressure {Pa}
  5.4,                                    ! Wind Speed {m/s}
  180,                                    ! Wind Direction {deg}
  0,                                      ! Sky Clearness
  0,                                      ! Rain Indicator
  0,                                      ! Snow Indicator
  21,                                     ! Day of Month
  7,                                      ! Month
  SummerDesignDay,                        ! Day Type
  0,                                      ! Daylight Saving Time Indicator
  Dewpoint,                               ! Humidity Indicating Type
  ,                                       ! Humidity Indicating Day Schedule Name
  DefaultMultipliers,                     ! Dry-Bulb Temperature Range Modifier Type
  ,                                       ! Dry-Bulb Temperature Range Modifier Schedule Name
  ASHRAETau,                              ! Solar Model Indicator
  ,                                       ! Beam Solar Day Schedule Name
  ,                                       ! Diffuse Solar Day Schedule Name
  0.431,                                  ! ASHRAE Taub {dimensionless}
  2.126;                                  ! ASHRAE Taud {dimensionless}

OS:ComponentData,
  {aeced77e-2a54-4699-bb5b-859c227b20ad}, ! Handle
  Component Data 1,                       ! Name
  {2b17797c-479b-4ede-b698-cc6ad49c78a2}, ! UUID
  {07e3e972-1942-4986-8cf5-e56a07e16fe6}, ! Version UUID
  1366311514,                             ! Creation Timestamp
  1366311514,                             ! Version Timestamp
  {d14984f1-c5be-4de3-89d8-8eca6afcf4ab}; ! Name of Object 1

