
OS:Version,
  {e4d1eb88-a5f5-46e3-858c-62a2c24926ea}, ! Handle
  0.9.3;                                  ! Version Identifier

OS:SizingPeriod:DesignDay,
  {3d2ab59b-f77e-4bac-8036-cd592ec6227b}, ! Handle
  Dodge City Ann Htg 99% Condns DB,       ! Name
  -13.3,                                  ! Maximum Dry-Bulb Temperature {C}
  0,                                      ! Daily Dry-Bulb Temperature Range {deltaC}
  -13.3,                                  ! Humidity Indicating Conditions at Maximum Dry-Bulb {BasedOnField A3}
  92188,                                  ! Barometric Pressure {Pa}
  5.6,                                    ! Wind Speed {m/s}
  0,                                      ! Wind Direction {deg}
  0,                                      ! Sky Clearness
  0,                                      ! Rain Indicator
  0,                                      ! Snow Indicator
  21,                                     ! Day of Month
  1,                                      ! Month
  WinterDesignDay,                        ! Day Type
  0,                                      ! Daylight Saving Time Indicator
  Wetbulb,                                ! Humidity Indicating Type
  ,                                       ! Humidity Indicating Day Schedule Name
  DefaultMultipliers,                     ! Dry-Bulb Temperature Range Modifier Type
  ,                                       ! Dry-Bulb Temperature Range Modifier Schedule Name
  ASHRAEClearSky;                         ! Solar Model Indicator

OS:ComponentData,
  {7a86eaef-ef7d-4d3d-ac94-07c6c15dadc7}, ! Handle
  Component Data 1,                       ! Name
  {2661efe0-e401-44e2-baf7-f976cb1d0845}, ! UUID
  {49254c2b-6c5e-46d3-b08a-a688e3a88cfc}, ! Version UUID
  1366307512,                             ! Creation Timestamp
  1366307512,                             ! Version Timestamp
  {3d2ab59b-f77e-4bac-8036-cd592ec6227b}; ! Name of Object 1

