
OS:Version,
  {a0c493e8-d04a-4e60-81bc-d8902a6a0824}, ! Handle
  0.9.3;                                  ! Version Identifier

OS:SizingPeriod:DesignDay,
  {7dc54bd2-1bd4-4322-8ef0-6204c9b21b52}, ! Handle
  Eugene Mahlon Sweet Arpt  Uo Ann Hum_n 99.6% Condns DP=>MCDB, ! Name
  -3.4,                                   ! Maximum Dry-Bulb Temperature {C}
  0,                                      ! Daily Dry-Bulb Temperature Range {deltaC}
  -9.2,                                   ! Humidity Indicating Conditions at Maximum Dry-Bulb {BasedOnField A3}
  100022,                                 ! Barometric Pressure {Pa}
  3,                                      ! Wind Speed {m/s}
  0,                                      ! Wind Direction {deg}
  0,                                      ! Sky Clearness
  0,                                      ! Rain Indicator
  0,                                      ! Snow Indicator
  21,                                     ! Day of Month
  12,                                     ! Month
  WinterDesignDay,                        ! Day Type
  0,                                      ! Daylight Saving Time Indicator
  Dewpoint,                               ! Humidity Indicating Type
  ,                                       ! Humidity Indicating Day Schedule Name
  DefaultMultipliers,                     ! Dry-Bulb Temperature Range Modifier Type
  ,                                       ! Dry-Bulb Temperature Range Modifier Schedule Name
  ASHRAEClearSky;                         ! Solar Model Indicator

OS:ComponentData,
  {618be7b3-d871-4df1-931f-48d8b70fce18}, ! Handle
  Component Data 1,                       ! Name
  {7f439576-9530-4c24-a268-71ab0f4acf24}, ! UUID
  {b57a6d02-1b4e-4a52-b93f-b9391140541d}, ! Version UUID
  1366310006,                             ! Creation Timestamp
  1366310006,                             ! Version Timestamp
  {7dc54bd2-1bd4-4322-8ef0-6204c9b21b52}; ! Name of Object 1

