
OS:Version,
  {23eea76f-dbd7-4cef-a158-b82f005744b7}, ! Handle
  0.9.3;                                  ! Version Identifier

OS:SizingPeriod:DesignDay,
  {03f42a8a-20a3-4540-bc1f-e38ad86462d1}, ! Handle
  Del Rio  Ut Ann Clg 2% Condns WB=>MDB,  ! Name
  31.1,                                   ! Maximum Dry-Bulb Temperature {C}
  11.4,                                   ! Daily Dry-Bulb Temperature Range {deltaC}
  24.3,                                   ! Humidity Indicating Conditions at Maximum Dry-Bulb {BasedOnField A3}
  97679,                                  ! Barometric Pressure {Pa}
  4.8,                                    ! Wind Speed {m/s}
  140,                                    ! Wind Direction {deg}
  0,                                      ! Sky Clearness
  0,                                      ! Rain Indicator
  0,                                      ! Snow Indicator
  21,                                     ! Day of Month
  7,                                      ! Month
  SummerDesignDay,                        ! Day Type
  0,                                      ! Daylight Saving Time Indicator
  Wetbulb,                                ! Humidity Indicating Type
  ,                                       ! Humidity Indicating Day Schedule Name
  DefaultMultipliers,                     ! Dry-Bulb Temperature Range Modifier Type
  ,                                       ! Dry-Bulb Temperature Range Modifier Schedule Name
  ASHRAETau,                              ! Solar Model Indicator
  ,                                       ! Beam Solar Day Schedule Name
  ,                                       ! Diffuse Solar Day Schedule Name
  0.48,                                   ! ASHRAE Taub {dimensionless}
  1.993;                                  ! ASHRAE Taud {dimensionless}

OS:ComponentData,
  {276f976b-6288-45ff-8cc3-0d3a1babcfe8}, ! Handle
  Component Data 1,                       ! Name
  {6f617972-3c06-4652-8ea9-236c33dc669b}, ! UUID
  {238ef26c-f8f7-4a57-95fd-a155a8fe2663}, ! Version UUID
  1366310677,                             ! Creation Timestamp
  1366310677,                             ! Version Timestamp
  {03f42a8a-20a3-4540-bc1f-e38ad86462d1}; ! Name of Object 1

