
OS:Version,
  {78c5b5a9-b57e-4fc7-a056-c7aff0e08718}, ! Handle
  0.9.3;                                  ! Version Identifier

OS:SizingPeriod:DesignDay,
  {b1d9c2cd-ddde-45a8-8348-ee0149e2568b}, ! Handle
  Lynchburg Regional Arpt Ann Clg .4% Condns DB=>MWB, ! Name
  33.4,                                   ! Maximum Dry-Bulb Temperature {C}
  10.7,                                   ! Daily Dry-Bulb Temperature Range {deltaC}
  23.3,                                   ! Humidity Indicating Conditions at Maximum Dry-Bulb {BasedOnField A3}
  97936,                                  ! Barometric Pressure {Pa}
  3.3,                                    ! Wind Speed {m/s}
  240,                                    ! Wind Direction {deg}
  0,                                      ! Sky Clearness
  0,                                      ! Rain Indicator
  0,                                      ! Snow Indicator
  21,                                     ! Day of Month
  7,                                      ! Month
  SummerDesignDay,                        ! Day Type
  0,                                      ! Daylight Saving Time Indicator
  Wetbulb,                                ! Humidity Indicating Type
  ,                                       ! Humidity Indicating Day Schedule Name
  DefaultMultipliers,                     ! Dry-Bulb Temperature Range Modifier Type
  ,                                       ! Dry-Bulb Temperature Range Modifier Schedule Name
  ASHRAETau,                              ! Solar Model Indicator
  ,                                       ! Beam Solar Day Schedule Name
  ,                                       ! Diffuse Solar Day Schedule Name
  0.531,                                  ! ASHRAE Taub {dimensionless}
  1.818;                                  ! ASHRAE Taud {dimensionless}

OS:ComponentData,
  {85c4e928-0ac6-49af-8ebc-f2e4f8493db4}, ! Handle
  Component Data 1,                       ! Name
  {75767eeb-b3a0-4592-b242-91f460a4e139}, ! UUID
  {31bbd117-5256-4a83-b18a-6af329e19c13}, ! Version UUID
  1366311089,                             ! Creation Timestamp
  1366311089,                             ! Version Timestamp
  {b1d9c2cd-ddde-45a8-8348-ee0149e2568b}; ! Name of Object 1

