
OS:Version,
  {169a859c-ac33-4d94-ab5f-aee6d6afbedf}, ! Handle
  0.9.3;                                  ! Version Identifier

OS:SizingPeriod:DesignDay,
  {35b60926-ce9e-4d74-ad48-768e126271c9}, ! Handle
  Lamar Municipal Ann Htg 99% Condns DB,  ! Name
  -12.9,                                  ! Maximum Dry-Bulb Temperature {C}
  0,                                      ! Daily Dry-Bulb Temperature Range {deltaC}
  -12.9,                                  ! Humidity Indicating Conditions at Maximum Dry-Bulb {BasedOnField A3}
  88477,                                  ! Barometric Pressure {Pa}
  3.1,                                    ! Wind Speed {m/s}
  220,                                    ! Wind Direction {deg}
  0,                                      ! Sky Clearness
  0,                                      ! Rain Indicator
  0,                                      ! Snow Indicator
  21,                                     ! Day of Month
  12,                                     ! Month
  WinterDesignDay,                        ! Day Type
  0,                                      ! Daylight Saving Time Indicator
  Wetbulb,                                ! Humidity Indicating Type
  ,                                       ! Humidity Indicating Day Schedule Name
  DefaultMultipliers,                     ! Dry-Bulb Temperature Range Modifier Type
  ,                                       ! Dry-Bulb Temperature Range Modifier Schedule Name
  ASHRAEClearSky;                         ! Solar Model Indicator

OS:ComponentData,
  {91f517cf-f4c4-40e5-9a7b-aa8db965d550}, ! Handle
  Component Data 1,                       ! Name
  {b111261f-c2a0-4395-bb78-10e3d87f677f}, ! UUID
  {ab9c6e60-76b4-45b2-8e80-9f32dc4bf6ac}, ! Version UUID
  1366306716,                             ! Creation Timestamp
  1366306716,                             ! Version Timestamp
  {35b60926-ce9e-4d74-ad48-768e126271c9}; ! Name of Object 1

