
OS:Version,
  {714427a0-75d7-4ac5-8ee1-bc3ddd554601}, ! Handle
  0.9.3;                                  ! Version Identifier

OS:SizingPeriod:DesignDay,
  {db52a3aa-161b-4b3e-935c-599f6209ec3b}, ! Handle
  Harrison Marion Rgn Ann Clg 2% Condns Enth=>MDB, ! Name
  27.4,                                   ! Maximum Dry-Bulb Temperature {C}
  10.1,                                   ! Daily Dry-Bulb Temperature Range {deltaC}
  68900,                                  ! Humidity Indicating Conditions at Maximum Dry-Bulb {BasedOnField A3}
  96842,                                  ! Barometric Pressure {Pa}
  3.3,                                    ! Wind Speed {m/s}
  220,                                    ! Wind Direction {deg}
  0,                                      ! Sky Clearness
  0,                                      ! Rain Indicator
  0,                                      ! Snow Indicator
  21,                                     ! Day of Month
  7,                                      ! Month
  SummerDesignDay,                        ! Day Type
  0,                                      ! Daylight Saving Time Indicator
  Enthalpy,                               ! Humidity Indicating Type
  ,                                       ! Humidity Indicating Day Schedule Name
  DefaultMultipliers,                     ! Dry-Bulb Temperature Range Modifier Type
  ,                                       ! Dry-Bulb Temperature Range Modifier Schedule Name
  ASHRAETau,                              ! Solar Model Indicator
  ,                                       ! Beam Solar Day Schedule Name
  ,                                       ! Diffuse Solar Day Schedule Name
  0.499,                                  ! ASHRAE Taub {dimensionless}
  1.888;                                  ! ASHRAE Taud {dimensionless}

OS:ComponentData,
  {86f4f7fd-1d05-4808-9e93-22e19108a8c3}, ! Handle
  Component Data 1,                       ! Name
  {da071569-d74f-4f31-80cd-8cf2f16b4d55}, ! UUID
  {4d78783c-ce27-4198-be21-6b7339f9a74f}, ! Version UUID
  1366311638,                             ! Creation Timestamp
  1366311638,                             ! Version Timestamp
  {db52a3aa-161b-4b3e-935c-599f6209ec3b}; ! Name of Object 1

