
OS:Version,
  {0abed672-0b43-4b87-a999-62db6af1ad2c}, ! Handle
  0.9.3;                                  ! Version Identifier

OS:SizingPeriod:DesignDay,
  {7cc4f1dc-539a-48d0-8b29-cb83f0882f9f}, ! Handle
  Lewistown Municipal Arpt Ann Clg .4% Condns WB=>MDB, ! Name
  28,                                     ! Maximum Dry-Bulb Temperature {C}
  15.7,                                   ! Daily Dry-Bulb Temperature Range {deltaC}
  17.9,                                   ! Humidity Indicating Conditions at Maximum Dry-Bulb {BasedOnField A3}
  87044,                                  ! Barometric Pressure {Pa}
  4.3,                                    ! Wind Speed {m/s}
  0,                                      ! Wind Direction {deg}
  0,                                      ! Sky Clearness
  0,                                      ! Rain Indicator
  0,                                      ! Snow Indicator
  21,                                     ! Day of Month
  7,                                      ! Month
  SummerDesignDay,                        ! Day Type
  0,                                      ! Daylight Saving Time Indicator
  Wetbulb,                                ! Humidity Indicating Type
  ,                                       ! Humidity Indicating Day Schedule Name
  DefaultMultipliers,                     ! Dry-Bulb Temperature Range Modifier Type
  ,                                       ! Dry-Bulb Temperature Range Modifier Schedule Name
  ASHRAETau,                              ! Solar Model Indicator
  ,                                       ! Beam Solar Day Schedule Name
  ,                                       ! Diffuse Solar Day Schedule Name
  0.382,                                  ! ASHRAE Taub {dimensionless}
  2.178;                                  ! ASHRAE Taud {dimensionless}

OS:ComponentData,
  {601227ed-583b-425c-94f8-b9013ee034ac}, ! Handle
  Component Data 1,                       ! Name
  {78b77e50-61b8-443c-bfdf-134006084be3}, ! UUID
  {ab5f1a36-ae40-48f1-8fc9-11d70101abc9}, ! Version UUID
  1366308821,                             ! Creation Timestamp
  1366308821,                             ! Version Timestamp
  {7cc4f1dc-539a-48d0-8b29-cb83f0882f9f}; ! Name of Object 1

