
OS:Version,
  {b0f16cc8-61de-4fc5-b321-6cbb892d1ed2}, ! Handle
  0.9.3;                                  ! Version Identifier

OS:SizingPeriod:DesignDay,
  {7df909f2-95eb-4e7f-b9e0-8d748278511f}, ! Handle
  Corvallis Muni Ann Clg .4% Condns DP=>MDB, ! Name
  25.5,                                   ! Maximum Dry-Bulb Temperature {C}
  15.5,                                   ! Daily Dry-Bulb Temperature Range {deltaC}
  15.9,                                   ! Humidity Indicating Conditions at Maximum Dry-Bulb {BasedOnField A3}
  100403,                                 ! Barometric Pressure {Pa}
  4.5,                                    ! Wind Speed {m/s}
  30,                                     ! Wind Direction {deg}
  0,                                      ! Sky Clearness
  0,                                      ! Rain Indicator
  0,                                      ! Snow Indicator
  21,                                     ! Day of Month
  7,                                      ! Month
  SummerDesignDay,                        ! Day Type
  0,                                      ! Daylight Saving Time Indicator
  Dewpoint,                               ! Humidity Indicating Type
  ,                                       ! Humidity Indicating Day Schedule Name
  DefaultMultipliers,                     ! Dry-Bulb Temperature Range Modifier Type
  ,                                       ! Dry-Bulb Temperature Range Modifier Schedule Name
  ASHRAETau,                              ! Solar Model Indicator
  ,                                       ! Beam Solar Day Schedule Name
  ,                                       ! Diffuse Solar Day Schedule Name
  0.357,                                  ! ASHRAE Taub {dimensionless}
  2.553;                                  ! ASHRAE Taud {dimensionless}

OS:ComponentData,
  {ef88a224-a315-449d-a848-0df99295f2b8}, ! Handle
  Component Data 1,                       ! Name
  {d0d62b93-e83a-4c54-8e94-78ef8fc051b6}, ! UUID
  {f071aacf-27bd-449d-b4c5-d5718de03f10}, ! Version UUID
  1366310002,                             ! Creation Timestamp
  1366310002,                             ! Version Timestamp
  {7df909f2-95eb-4e7f-b9e0-8d748278511f}; ! Name of Object 1

