
OS:Version,
  {462169fc-90e9-4482-9e76-0f0ed58eff14}, ! Handle
  0.9.3;                                  ! Version Identifier

OS:SizingPeriod:DesignDay,
  {a4b996f3-0a5c-406d-ad44-2eea6d276e71}, ! Handle
  Keesler Afb Ann Htg Wind 99.6% Condns WS=>MCDB, ! Name
  8.8,                                    ! Maximum Dry-Bulb Temperature {C}
  0,                                      ! Daily Dry-Bulb Temperature Range {deltaC}
  8.8,                                    ! Humidity Indicating Conditions at Maximum Dry-Bulb {BasedOnField A3}
  101229,                                 ! Barometric Pressure {Pa}
  9,                                      ! Wind Speed {m/s}
  0,                                      ! Wind Direction {deg}
  0,                                      ! Sky Clearness
  0,                                      ! Rain Indicator
  0,                                      ! Snow Indicator
  21,                                     ! Day of Month
  1,                                      ! Month
  WinterDesignDay,                        ! Day Type
  0,                                      ! Daylight Saving Time Indicator
  Wetbulb,                                ! Humidity Indicating Type
  ,                                       ! Humidity Indicating Day Schedule Name
  DefaultMultipliers,                     ! Dry-Bulb Temperature Range Modifier Type
  ,                                       ! Dry-Bulb Temperature Range Modifier Schedule Name
  ASHRAEClearSky;                         ! Solar Model Indicator

OS:ComponentData,
  {bb9f1d09-f0b7-46d7-be5e-1d61a204e849}, ! Handle
  Component Data 1,                       ! Name
  {4d31b0c6-3646-4238-8200-246ef1cfb85c}, ! UUID
  {e6c2197a-2ae1-4426-b647-df907bdda79b}, ! Version UUID
  1366308606,                             ! Creation Timestamp
  1366308606,                             ! Version Timestamp
  {a4b996f3-0a5c-406d-ad44-2eea6d276e71}; ! Name of Object 1

