
OS:Version,
  {8f0a5cc4-0265-4e2c-8506-5e547d0a17eb}, ! Handle
  0.9.3;                                  ! Version Identifier

OS:SizingPeriod:DesignDay,
  {a8945cc3-a8a5-45cf-86ee-6ced2373ba50}, ! Handle
  Concordia Blosser Muni Ap Ann Clg .4% Condns WB=>MDB, ! Name
  32.3,                                   ! Maximum Dry-Bulb Temperature {C}
  12.3,                                   ! Daily Dry-Bulb Temperature Range {deltaC}
  25.2,                                   ! Humidity Indicating Conditions at Maximum Dry-Bulb {BasedOnField A3}
  96058,                                  ! Barometric Pressure {Pa}
  6.6,                                    ! Wind Speed {m/s}
  180,                                    ! Wind Direction {deg}
  0,                                      ! Sky Clearness
  0,                                      ! Rain Indicator
  0,                                      ! Snow Indicator
  21,                                     ! Day of Month
  7,                                      ! Month
  SummerDesignDay,                        ! Day Type
  0,                                      ! Daylight Saving Time Indicator
  Wetbulb,                                ! Humidity Indicating Type
  ,                                       ! Humidity Indicating Day Schedule Name
  DefaultMultipliers,                     ! Dry-Bulb Temperature Range Modifier Type
  ,                                       ! Dry-Bulb Temperature Range Modifier Schedule Name
  ASHRAETau,                              ! Solar Model Indicator
  ,                                       ! Beam Solar Day Schedule Name
  ,                                       ! Diffuse Solar Day Schedule Name
  0.417,                                  ! ASHRAE Taub {dimensionless}
  2.193;                                  ! ASHRAE Taud {dimensionless}

OS:ComponentData,
  {731bbab8-c725-4663-a7aa-49b4c0a8f27f}, ! Handle
  Component Data 1,                       ! Name
  {09871790-9dce-4214-8967-04f99831aa13}, ! UUID
  {64158417-fe4b-4d80-9300-1dd2c010aa89}, ! Version UUID
  1366307501,                             ! Creation Timestamp
  1366307501,                             ! Version Timestamp
  {a8945cc3-a8a5-45cf-86ee-6ced2373ba50}; ! Name of Object 1

