
OS:Version,
  {66d252cb-c03e-4bd0-8cd8-ac01a7cf19d7}, ! Handle
  0.9.3;                                  ! Version Identifier

OS:SizingPeriod:DesignDay,
  {60d377ed-cdd5-4d94-a429-d9cc1f91226c}, ! Handle
  Lufkin Angelina Co Ann Htg Wind 99% Condns WS=>MCDB, ! Name
  12.9,                                   ! Maximum Dry-Bulb Temperature {C}
  0,                                      ! Daily Dry-Bulb Temperature Range {deltaC}
  12.9,                                   ! Humidity Indicating Conditions at Maximum Dry-Bulb {BasedOnField A3}
  100296,                                 ! Barometric Pressure {Pa}
  8.2,                                    ! Wind Speed {m/s}
  340,                                    ! Wind Direction {deg}
  0,                                      ! Sky Clearness
  0,                                      ! Rain Indicator
  0,                                      ! Snow Indicator
  21,                                     ! Day of Month
  1,                                      ! Month
  WinterDesignDay,                        ! Day Type
  0,                                      ! Daylight Saving Time Indicator
  Wetbulb,                                ! Humidity Indicating Type
  ,                                       ! Humidity Indicating Day Schedule Name
  DefaultMultipliers,                     ! Dry-Bulb Temperature Range Modifier Type
  ,                                       ! Dry-Bulb Temperature Range Modifier Schedule Name
  ASHRAEClearSky;                         ! Solar Model Indicator

OS:ComponentData,
  {a40a9210-9d11-48fb-a497-125facd6aa9b}, ! Handle
  Component Data 1,                       ! Name
  {1e9b5fe3-2ffc-44bf-b5fa-d553442353e6}, ! UUID
  {92950d39-3e8f-4556-93e7-bd81dc8bb068}, ! Version UUID
  1366310807,                             ! Creation Timestamp
  1366310807,                             ! Version Timestamp
  {60d377ed-cdd5-4d94-a429-d9cc1f91226c}; ! Name of Object 1

