
OS:Version,
  {37b7ee22-ed05-4f76-b893-29ccb72d81fd}, ! Handle
  0.9.3;                                  ! Version Identifier

OS:SizingPeriod:DesignDay,
  {3bbbf1d4-6105-4df5-b5e3-3e46c9fee47a}, ! Handle
  Glendive Awos Ann Htg Wind 99% Condns WS=>MCDB, ! Name
  -3.7,                                   ! Maximum Dry-Bulb Temperature {C}
  0,                                      ! Daily Dry-Bulb Temperature Range {deltaC}
  -3.7,                                   ! Humidity Indicating Conditions at Maximum Dry-Bulb {BasedOnField A3}
  92645,                                  ! Barometric Pressure {Pa}
  12.8,                                   ! Wind Speed {m/s}
  320,                                    ! Wind Direction {deg}
  0,                                      ! Sky Clearness
  0,                                      ! Rain Indicator
  0,                                      ! Snow Indicator
  21,                                     ! Day of Month
  1,                                      ! Month
  WinterDesignDay,                        ! Day Type
  0,                                      ! Daylight Saving Time Indicator
  Wetbulb,                                ! Humidity Indicating Type
  ,                                       ! Humidity Indicating Day Schedule Name
  DefaultMultipliers,                     ! Dry-Bulb Temperature Range Modifier Type
  ,                                       ! Dry-Bulb Temperature Range Modifier Schedule Name
  ASHRAEClearSky;                         ! Solar Model Indicator

OS:ComponentData,
  {c6174e4d-656b-4c00-9771-d6c5eccf81b8}, ! Handle
  Component Data 1,                       ! Name
  {7253b09e-f050-4487-8d70-ecdb1aa6e51c}, ! UUID
  {bcb4c182-ab58-4322-9e19-0921e05c0c88}, ! Version UUID
  1366308767,                             ! Creation Timestamp
  1366308767,                             ! Version Timestamp
  {3bbbf1d4-6105-4df5-b5e3-3e46c9fee47a}; ! Name of Object 1

