
OS:Version,
  {9ebcccaf-9be5-46b9-8fd5-01baf169afe5}, ! Handle
  0.9.3;                                  ! Version Identifier

OS:SizingPeriod:DesignDay,
  {0285fa1f-975d-48fe-bdce-d5ea14f1b06f}, ! Handle
  Coeur D Alene Awos Ann Htg Wind 99.6% Condns WS=>MCDB, ! Name
  -1,                                     ! Maximum Dry-Bulb Temperature {C}
  0,                                      ! Daily Dry-Bulb Temperature Range {deltaC}
  -1,                                     ! Humidity Indicating Conditions at Maximum Dry-Bulb {BasedOnField A3}
  93115,                                  ! Barometric Pressure {Pa}
  12.9,                                   ! Wind Speed {m/s}
  40,                                     ! Wind Direction {deg}
  0,                                      ! Sky Clearness
  0,                                      ! Rain Indicator
  0,                                      ! Snow Indicator
  21,                                     ! Day of Month
  12,                                     ! Month
  WinterDesignDay,                        ! Day Type
  0,                                      ! Daylight Saving Time Indicator
  Wetbulb,                                ! Humidity Indicating Type
  ,                                       ! Humidity Indicating Day Schedule Name
  DefaultMultipliers,                     ! Dry-Bulb Temperature Range Modifier Type
  ,                                       ! Dry-Bulb Temperature Range Modifier Schedule Name
  ASHRAEClearSky;                         ! Solar Model Indicator

