
OS:Version,
  {e81aadc1-8bda-44b1-9c91-947f226eda09}, ! Handle
  0.9.3;                                  ! Version Identifier

OS:SizingPeriod:DesignDay,
  {ee33752d-151a-4079-8fdd-fbb7362cd226}, ! Handle
  Greenwood Leflore Arpt Ann Clg .4% Condns DP=>MDB, ! Name
  29.8,                                   ! Maximum Dry-Bulb Temperature {C}
  10.5,                                   ! Daily Dry-Bulb Temperature Range {deltaC}
  25.8,                                   ! Humidity Indicating Conditions at Maximum Dry-Bulb {BasedOnField A3}
  100762,                                 ! Barometric Pressure {Pa}
  2.9,                                    ! Wind Speed {m/s}
  230,                                    ! Wind Direction {deg}
  0,                                      ! Sky Clearness
  0,                                      ! Rain Indicator
  0,                                      ! Snow Indicator
  21,                                     ! Day of Month
  7,                                      ! Month
  SummerDesignDay,                        ! Day Type
  0,                                      ! Daylight Saving Time Indicator
  Dewpoint,                               ! Humidity Indicating Type
  ,                                       ! Humidity Indicating Day Schedule Name
  DefaultMultipliers,                     ! Dry-Bulb Temperature Range Modifier Type
  ,                                       ! Dry-Bulb Temperature Range Modifier Schedule Name
  ASHRAETau,                              ! Solar Model Indicator
  ,                                       ! Beam Solar Day Schedule Name
  ,                                       ! Diffuse Solar Day Schedule Name
  0.551,                                  ! ASHRAE Taub {dimensionless}
  1.802;                                  ! ASHRAE Taud {dimensionless}

OS:ComponentData,
  {5df0e207-54ee-4f91-b337-3c0a37aee9dd}, ! Handle
  Component Data 1,                       ! Name
  {15663d3b-726e-44f8-af4e-a81cdd911bd0}, ! UUID
  {ee1b92f4-0076-4faa-9877-392fbdf691ed}, ! Version UUID
  1366308627,                             ! Creation Timestamp
  1366308627,                             ! Version Timestamp
  {ee33752d-151a-4079-8fdd-fbb7362cd226}; ! Name of Object 1

