
OS:Version,
  {704d0bed-320b-439a-9641-9f8f8b5a3480}, ! Handle
  0.9.3;                                  ! Version Identifier

OS:SizingPeriod:DesignDay,
  {3baaf059-3b87-48f8-b645-2c7f9cb415e3}, ! Handle
  Kearney Muni  Awos Ann Clg 2% Condns Enth=>MDB, ! Name
  29.7,                                   ! Maximum Dry-Bulb Temperature {C}
  12.2,                                   ! Daily Dry-Bulb Temperature Range {deltaC}
  70200,                                  ! Humidity Indicating Conditions at Maximum Dry-Bulb {BasedOnField A3}
  93767,                                  ! Barometric Pressure {Pa}
  6.4,                                    ! Wind Speed {m/s}
  190,                                    ! Wind Direction {deg}
  0,                                      ! Sky Clearness
  0,                                      ! Rain Indicator
  0,                                      ! Snow Indicator
  21,                                     ! Day of Month
  7,                                      ! Month
  SummerDesignDay,                        ! Day Type
  0,                                      ! Daylight Saving Time Indicator
  Enthalpy,                               ! Humidity Indicating Type
  ,                                       ! Humidity Indicating Day Schedule Name
  DefaultMultipliers,                     ! Dry-Bulb Temperature Range Modifier Type
  ,                                       ! Dry-Bulb Temperature Range Modifier Schedule Name
  ASHRAETau,                              ! Solar Model Indicator
  ,                                       ! Beam Solar Day Schedule Name
  ,                                       ! Diffuse Solar Day Schedule Name
  0.404,                                  ! ASHRAE Taub {dimensionless}
  2.221;                                  ! ASHRAE Taud {dimensionless}

OS:ComponentData,
  {05415711-a74c-407d-ba35-535343ccacc8}, ! Handle
  Component Data 1,                       ! Name
  {e1ebae34-7cdd-4c99-a82b-fb7803d20c23}, ! UUID
  {7d7eaa5a-5433-46d9-b4eb-3d3cd88590db}, ! Version UUID
  1366309137,                             ! Creation Timestamp
  1366309137,                             ! Version Timestamp
  {3baaf059-3b87-48f8-b645-2c7f9cb415e3}; ! Name of Object 1

