
OS:Version,
  {c9bdd21c-3bac-415e-bd88-14932ee7eb77}, ! Handle
  0.9.3;                                  ! Version Identifier

OS:SizingPeriod:DesignDay,
  {ce5d1f5c-425c-408b-9dfe-b56c2368aeb1}, ! Handle
  Lincoln Municipal Arpt Ann Clg 1% Condns WB=>MDB, ! Name
  31.7,                                   ! Maximum Dry-Bulb Temperature {C}
  12.1,                                   ! Daily Dry-Bulb Temperature Range {deltaC}
  25,                                     ! Humidity Indicating Conditions at Maximum Dry-Bulb {BasedOnField A3}
  97109,                                  ! Barometric Pressure {Pa}
  6.6,                                    ! Wind Speed {m/s}
  180,                                    ! Wind Direction {deg}
  0,                                      ! Sky Clearness
  0,                                      ! Rain Indicator
  0,                                      ! Snow Indicator
  21,                                     ! Day of Month
  7,                                      ! Month
  SummerDesignDay,                        ! Day Type
  0,                                      ! Daylight Saving Time Indicator
  Wetbulb,                                ! Humidity Indicating Type
  ,                                       ! Humidity Indicating Day Schedule Name
  DefaultMultipliers,                     ! Dry-Bulb Temperature Range Modifier Type
  ,                                       ! Dry-Bulb Temperature Range Modifier Schedule Name
  ASHRAETau,                              ! Solar Model Indicator
  ,                                       ! Beam Solar Day Schedule Name
  ,                                       ! Diffuse Solar Day Schedule Name
  0.414,                                  ! ASHRAE Taub {dimensionless}
  2.224;                                  ! ASHRAE Taud {dimensionless}

OS:ComponentData,
  {8a7620e5-1e28-4f9f-88b4-0f5483b853ad}, ! Handle
  Component Data 1,                       ! Name
  {d0fc5736-725f-4640-8b8d-4f2b4d3f16be}, ! UUID
  {46e84376-037f-421d-a215-28e3f06d4d3f}, ! Version UUID
  1366309140,                             ! Creation Timestamp
  1366309140,                             ! Version Timestamp
  {ce5d1f5c-425c-408b-9dfe-b56c2368aeb1}; ! Name of Object 1

