
OS:Version,
  {ea0e7077-deb8-49d8-b392-ebb66b70978d}, ! Handle
  0.9.3;                                  ! Version Identifier

OS:SizingPeriod:DesignDay,
  {2866eb7e-4a3b-4aa8-bc3c-3f538347efac}, ! Handle
  BALTIMORE Ann Clg 1% Condns DB=>MWB,    ! Name
  32.9,                                   ! Maximum Dry-Bulb Temperature {C}
  10.4,                                   ! Daily Dry-Bulb Temperature Range {deltaC}
  23.5,                                   ! Humidity Indicating Conditions at Maximum Dry-Bulb {BasedOnField A3}
  100762,                                 ! Barometric Pressure {Pa}
  4.6,                                    ! Wind Speed {m/s}
  280,                                    ! Wind Direction {deg}
  0,                                      ! Sky Clearness
  0,                                      ! Rain Indicator
  0,                                      ! Snow Indicator
  21,                                     ! Day of Month
  7,                                      ! Month
  SummerDesignDay,                        ! Day Type
  0,                                      ! Daylight Saving Time Indicator
  Wetbulb,                                ! Humidity Indicating Type
  ,                                       ! Humidity Indicating Day Schedule Name
  DefaultMultipliers,                     ! Dry-Bulb Temperature Range Modifier Type
  ,                                       ! Dry-Bulb Temperature Range Modifier Schedule Name
  ASHRAETau,                              ! Solar Model Indicator
  ,                                       ! Beam Solar Day Schedule Name
  ,                                       ! Diffuse Solar Day Schedule Name
  0.552,                                  ! ASHRAE Taub {dimensionless}
  1.769;                                  ! ASHRAE Taud {dimensionless}

OS:ComponentData,
  {1cb7a1a2-8998-42d3-b474-08f97ed49088}, ! Handle
  Component Data 1,                       ! Name
  {06b4f998-033a-4656-8a68-3f47e54c75ff}, ! UUID
  {9ca269d0-bbd4-4406-9804-8ffc4f31fe75}, ! Version UUID
  1366307845,                             ! Creation Timestamp
  1366307845,                             ! Version Timestamp
  {2866eb7e-4a3b-4aa8-bc3c-3f538347efac}; ! Name of Object 1

