
OS:Version,
  {8fb72cbc-8de4-4718-84d3-9ca6618542da}, ! Handle
  0.9.3;                                  ! Version Identifier

OS:SizingPeriod:DesignDay,
  {a418a876-3d92-4d43-aa9f-404fa77516b6}, ! Handle
  HARRISBURG Ann Clg .4% Condns Enth=>MDB, ! Name
  31,                                     ! Maximum Dry-Bulb Temperature {C}
  9.6,                                    ! Daily Dry-Bulb Temperature Range {deltaC}
  78800,                                  ! Humidity Indicating Conditions at Maximum Dry-Bulb {BasedOnField A3}
  100058,                                 ! Barometric Pressure {Pa}
  4.4,                                    ! Wind Speed {m/s}
  300,                                    ! Wind Direction {deg}
  0,                                      ! Sky Clearness
  0,                                      ! Rain Indicator
  0,                                      ! Snow Indicator
  21,                                     ! Day of Month
  7,                                      ! Month
  SummerDesignDay,                        ! Day Type
  0,                                      ! Daylight Saving Time Indicator
  Enthalpy,                               ! Humidity Indicating Type
  ,                                       ! Humidity Indicating Day Schedule Name
  DefaultMultipliers,                     ! Dry-Bulb Temperature Range Modifier Type
  ,                                       ! Dry-Bulb Temperature Range Modifier Schedule Name
  ASHRAETau,                              ! Solar Model Indicator
  ,                                       ! Beam Solar Day Schedule Name
  ,                                       ! Diffuse Solar Day Schedule Name
  0.521,                                  ! ASHRAE Taub {dimensionless}
  1.834;                                  ! ASHRAE Taud {dimensionless}

OS:ComponentData,
  {706db4bf-a0c5-496c-87b6-98963111db45}, ! Handle
  Component Data 1,                       ! Name
  {ca6bd340-f8ec-4ae2-99c4-20998ccdf26b}, ! UUID
  {aa8a6d3f-4404-423d-9708-77b55598fa0e}, ! Version UUID
  1366310194,                             ! Creation Timestamp
  1366310194,                             ! Version Timestamp
  {a418a876-3d92-4d43-aa9f-404fa77516b6}; ! Name of Object 1

