
OS:Version,
  {4ae2fb36-8775-407b-8c22-bd6c1a057c81}, ! Handle
  0.9.3;                                  ! Version Identifier

OS:SizingPeriod:DesignDay,
  {1d8d339b-5cb0-465b-9bae-32a8aa9cf972}, ! Handle
  Asheville Ann Htg Wind 99% Condns WS=>MCDB, ! Name
  -2.6,                                   ! Maximum Dry-Bulb Temperature {C}
  0,                                      ! Daily Dry-Bulb Temperature Range {deltaC}
  -2.6,                                   ! Humidity Indicating Conditions at Maximum Dry-Bulb {BasedOnField A3}
  93632,                                  ! Barometric Pressure {Pa}
  11.5,                                   ! Wind Speed {m/s}
  340,                                    ! Wind Direction {deg}
  0,                                      ! Sky Clearness
  0,                                      ! Rain Indicator
  0,                                      ! Snow Indicator
  21,                                     ! Day of Month
  1,                                      ! Month
  WinterDesignDay,                        ! Day Type
  0,                                      ! Daylight Saving Time Indicator
  Wetbulb,                                ! Humidity Indicating Type
  ,                                       ! Humidity Indicating Day Schedule Name
  DefaultMultipliers,                     ! Dry-Bulb Temperature Range Modifier Type
  ,                                       ! Dry-Bulb Temperature Range Modifier Schedule Name
  ASHRAEClearSky;                         ! Solar Model Indicator

OS:ComponentData,
  {3a070c1e-8adc-41eb-90b1-4246d2762bfc}, ! Handle
  Component Data 1,                       ! Name
  {209d4189-bb75-4d98-a11f-7bbc8ee693d8}, ! UUID
  {d78825a8-8f9a-48e0-a3a1-fab62841830d}, ! Version UUID
  1366308864,                             ! Creation Timestamp
  1366308864,                             ! Version Timestamp
  {1d8d339b-5cb0-465b-9bae-32a8aa9cf972}; ! Name of Object 1

