
OS:Version,
  {93d0c5c0-31ce-4c94-ad4c-c7ca9ee9b521}, ! Handle
  0.9.3;                                  ! Version Identifier

OS:SizingPeriod:DesignDay,
  {f163340e-d753-46f4-8792-d03f188641f5}, ! Handle
  Klamath Falls Intl Ap  Uo Ann Clg 1% Condns DB=>MWB, ! Name
  31.2,                                   ! Maximum Dry-Bulb Temperature {C}
  18.6,                                   ! Daily Dry-Bulb Temperature Range {deltaC}
  16.8,                                   ! Humidity Indicating Conditions at Maximum Dry-Bulb {BasedOnField A3}
  87502,                                  ! Barometric Pressure {Pa}
  3.5,                                    ! Wind Speed {m/s}
  320,                                    ! Wind Direction {deg}
  0,                                      ! Sky Clearness
  0,                                      ! Rain Indicator
  0,                                      ! Snow Indicator
  21,                                     ! Day of Month
  7,                                      ! Month
  SummerDesignDay,                        ! Day Type
  0,                                      ! Daylight Saving Time Indicator
  Wetbulb,                                ! Humidity Indicating Type
  ,                                       ! Humidity Indicating Day Schedule Name
  DefaultMultipliers,                     ! Dry-Bulb Temperature Range Modifier Type
  ,                                       ! Dry-Bulb Temperature Range Modifier Schedule Name
  ASHRAETau,                              ! Solar Model Indicator
  ,                                       ! Beam Solar Day Schedule Name
  ,                                       ! Diffuse Solar Day Schedule Name
  0.327,                                  ! ASHRAE Taub {dimensionless}
  2.593;                                  ! ASHRAE Taud {dimensionless}

OS:ComponentData,
  {789ccb9f-a82e-4b9b-88dc-bd23b855e4a2}, ! Handle
  Component Data 1,                       ! Name
  {8db5104e-3fb5-4ddd-8365-0f5d9c85ae06}, ! UUID
  {e133d4f2-fa52-45bb-b5e4-1739b899c68e}, ! Version UUID
  1366310016,                             ! Creation Timestamp
  1366310016,                             ! Version Timestamp
  {f163340e-d753-46f4-8792-d03f188641f5}; ! Name of Object 1

