
OS:Version,
  {54639f70-f79a-4f77-b376-6094c0f4a47f}, ! Handle
  0.9.3;                                  ! Version Identifier

OS:SizingPeriod:DesignDay,
  {ae13ffd9-cfe0-4188-8741-253c65190675}, ! Handle
  Honolulu Intl Arpt Ann Clg 1% Condns WB=>MDB, ! Name
  29,                                     ! Maximum Dry-Bulb Temperature {C}
  7.1,                                    ! Daily Dry-Bulb Temperature Range {deltaC}
  24.6,                                   ! Humidity Indicating Conditions at Maximum Dry-Bulb {BasedOnField A3}
  101301,                                 ! Barometric Pressure {Pa}
  6.7,                                    ! Wind Speed {m/s}
  60,                                     ! Wind Direction {deg}
  0,                                      ! Sky Clearness
  0,                                      ! Rain Indicator
  0,                                      ! Snow Indicator
  21,                                     ! Day of Month
  8,                                      ! Month
  SummerDesignDay,                        ! Day Type
  0,                                      ! Daylight Saving Time Indicator
  Wetbulb,                                ! Humidity Indicating Type
  ,                                       ! Humidity Indicating Day Schedule Name
  DefaultMultipliers,                     ! Dry-Bulb Temperature Range Modifier Type
  ,                                       ! Dry-Bulb Temperature Range Modifier Schedule Name
  ASHRAETau,                              ! Solar Model Indicator
  ,                                       ! Beam Solar Day Schedule Name
  ,                                       ! Diffuse Solar Day Schedule Name
  0.382,                                  ! ASHRAE Taub {dimensionless}
  2.521;                                  ! ASHRAE Taud {dimensionless}

OS:ComponentData,
  {27b1fe37-16c9-4bbb-a340-7dccda951f10}, ! Handle
  Component Data 1,                       ! Name
  {dfe7fa14-3dda-43bf-8070-83cc3b62d203}, ! UUID
  {a2db7587-b53d-4fae-bd45-a8c1767c9229}, ! Version UUID
  1366307094,                             ! Creation Timestamp
  1366307094,                             ! Version Timestamp
  {ae13ffd9-cfe0-4188-8741-253c65190675}; ! Name of Object 1

