
OS:Version,
  {dd5161fd-04c2-4033-be14-64b95ac0495d}, ! Handle
  0.9.3;                                  ! Version Identifier

OS:SizingPeriod:DesignDay,
  {e9f4ecef-98e3-41c3-81c1-4fa77d87b12e}, ! Handle
  Fort Lauderdale Hollywood Int Ann Hum_n 99.6% Condns DP=>MCDB, ! Name
  12.3,                                   ! Maximum Dry-Bulb Temperature {C}
  0,                                      ! Daily Dry-Bulb Temperature Range {deltaC}
  -0.8,                                   ! Humidity Indicating Conditions at Maximum Dry-Bulb {BasedOnField A3}
  101289,                                 ! Barometric Pressure {Pa}
  4,                                      ! Wind Speed {m/s}
  320,                                    ! Wind Direction {deg}
  0,                                      ! Sky Clearness
  0,                                      ! Rain Indicator
  0,                                      ! Snow Indicator
  21,                                     ! Day of Month
  1,                                      ! Month
  WinterDesignDay,                        ! Day Type
  0,                                      ! Daylight Saving Time Indicator
  Dewpoint,                               ! Humidity Indicating Type
  ,                                       ! Humidity Indicating Day Schedule Name
  DefaultMultipliers,                     ! Dry-Bulb Temperature Range Modifier Type
  ,                                       ! Dry-Bulb Temperature Range Modifier Schedule Name
  ASHRAEClearSky;                         ! Solar Model Indicator

OS:ComponentData,
  {685690e7-232f-44b8-a88b-22552c387443}, ! Handle
  Component Data 1,                       ! Name
  {6ab92c02-e79a-4c0e-8a54-38e29fcff97d}, ! UUID
  {82da49a1-5176-41e0-ac07-f5a0a6ce33d2}, ! Version UUID
  1366306797,                             ! Creation Timestamp
  1366306797,                             ! Version Timestamp
  {e9f4ecef-98e3-41c3-81c1-4fa77d87b12e}; ! Name of Object 1

