
OS:Version,
  {73ce174e-49b6-4642-8fc6-06127f210e35}, ! Handle
  0.9.3;                                  ! Version Identifier

OS:SizingPeriod:DesignDay,
  {2805fb92-3be2-4c1a-b8cd-bc8b9c21cb7c}, ! Handle
  Houston Bush Intercontinental Ann Clg 1% Condns DB=>MWB, ! Name
  35,                                     ! Maximum Dry-Bulb Temperature {C}
  10.1,                                   ! Daily Dry-Bulb Temperature Range {deltaC}
  24.8,                                   ! Humidity Indicating Conditions at Maximum Dry-Bulb {BasedOnField A3}
  100977,                                 ! Barometric Pressure {Pa}
  3.5,                                    ! Wind Speed {m/s}
  170,                                    ! Wind Direction {deg}
  0,                                      ! Sky Clearness
  0,                                      ! Rain Indicator
  0,                                      ! Snow Indicator
  21,                                     ! Day of Month
  7,                                      ! Month
  SummerDesignDay,                        ! Day Type
  0,                                      ! Daylight Saving Time Indicator
  Wetbulb,                                ! Humidity Indicating Type
  ,                                       ! Humidity Indicating Day Schedule Name
  DefaultMultipliers,                     ! Dry-Bulb Temperature Range Modifier Type
  ,                                       ! Dry-Bulb Temperature Range Modifier Schedule Name
  ASHRAETau,                              ! Solar Model Indicator
  ,                                       ! Beam Solar Day Schedule Name
  ,                                       ! Diffuse Solar Day Schedule Name
  0.499,                                  ! ASHRAE Taub {dimensionless}
  1.97;                                   ! ASHRAE Taud {dimensionless}

OS:ComponentData,
  {37835896-7189-4933-b28b-0d4d9a61b296}, ! Handle
  Component Data 1,                       ! Name
  {340e05ca-431a-4bfb-8218-bfffa510b182}, ! UUID
  {55888260-4ab1-47ea-8ac4-533e7086b8ee}, ! Version UUID
  1366310743,                             ! Creation Timestamp
  1366310743,                             ! Version Timestamp
  {2805fb92-3be2-4c1a-b8cd-bc8b9c21cb7c}; ! Name of Object 1

