
OS:Version,
  {4e15fee1-701f-4143-8cb3-3ee26786fe58}, ! Handle
  0.9.3;                                  ! Version Identifier

OS:SizingPeriod:DesignDay,
  {902640d9-caf1-4656-92a0-1736fd42c34a}, ! Handle
  Crestview Bob Sikes Ap Ann Clg 2% Condns Enth=>MDB, ! Name
  30.7,                                   ! Maximum Dry-Bulb Temperature {C}
  11,                                     ! Daily Dry-Bulb Temperature Range {deltaC}
  78500,                                  ! Humidity Indicating Conditions at Maximum Dry-Bulb {BasedOnField A3}
  100630,                                 ! Barometric Pressure {Pa}
  3,                                      ! Wind Speed {m/s}
  340,                                    ! Wind Direction {deg}
  0,                                      ! Sky Clearness
  0,                                      ! Rain Indicator
  0,                                      ! Snow Indicator
  21,                                     ! Day of Month
  7,                                      ! Month
  SummerDesignDay,                        ! Day Type
  0,                                      ! Daylight Saving Time Indicator
  Enthalpy,                               ! Humidity Indicating Type
  ,                                       ! Humidity Indicating Day Schedule Name
  DefaultMultipliers,                     ! Dry-Bulb Temperature Range Modifier Type
  ,                                       ! Dry-Bulb Temperature Range Modifier Schedule Name
  ASHRAETau,                              ! Solar Model Indicator
  ,                                       ! Beam Solar Day Schedule Name
  ,                                       ! Diffuse Solar Day Schedule Name
  0.535,                                  ! ASHRAE Taub {dimensionless}
  1.873;                                  ! ASHRAE Taud {dimensionless}

OS:ComponentData,
  {ea5aa62a-787d-4e91-84a8-0a1e6cb132bd}, ! Handle
  Component Data 1,                       ! Name
  {fe06da8a-6307-4423-8122-9b913ab5c319}, ! UUID
  {78fc7a0d-b86b-404b-a6f5-b00b9d72a3d7}, ! Version UUID
  1366306785,                             ! Creation Timestamp
  1366306785,                             ! Version Timestamp
  {902640d9-caf1-4656-92a0-1736fd42c34a}; ! Name of Object 1

