
OS:Version,
  {f270cfd7-349b-44de-8b29-5d0df3599770}, ! Handle
  0.9.3;                                  ! Version Identifier

OS:SizingPeriod:DesignDay,
  {24d523e3-4d8d-4735-b9b2-225f56e51159}, ! Handle
  Cortez Montezuma Co Ann Clg 2% Condns Enth=>MDB, ! Name
  27.4,                                   ! Maximum Dry-Bulb Temperature {C}
  19.3,                                   ! Daily Dry-Bulb Temperature Range {deltaC}
  53700,                                  ! Humidity Indicating Conditions at Maximum Dry-Bulb {BasedOnField A3}
  81459,                                  ! Barometric Pressure {Pa}
  4.8,                                    ! Wind Speed {m/s}
  290,                                    ! Wind Direction {deg}
  0,                                      ! Sky Clearness
  0,                                      ! Rain Indicator
  0,                                      ! Snow Indicator
  21,                                     ! Day of Month
  7,                                      ! Month
  SummerDesignDay,                        ! Day Type
  0,                                      ! Daylight Saving Time Indicator
  Enthalpy,                               ! Humidity Indicating Type
  ,                                       ! Humidity Indicating Day Schedule Name
  DefaultMultipliers,                     ! Dry-Bulb Temperature Range Modifier Type
  ,                                       ! Dry-Bulb Temperature Range Modifier Schedule Name
  ASHRAETau,                              ! Solar Model Indicator
  ,                                       ! Beam Solar Day Schedule Name
  ,                                       ! Diffuse Solar Day Schedule Name
  0.384,                                  ! ASHRAE Taub {dimensionless}
  2.183;                                  ! ASHRAE Taud {dimensionless}

OS:ComponentData,
  {8ff4ec12-8049-41a0-bb4e-837948f8fb12}, ! Handle
  Component Data 1,                       ! Name
  {85004459-2248-41fc-80c4-17737f376e9d}, ! UUID
  {7d6fce44-39d8-4041-aa1b-228c634524a0}, ! Version UUID
  1366306669,                             ! Creation Timestamp
  1366306669,                             ! Version Timestamp
  {24d523e3-4d8d-4735-b9b2-225f56e51159}; ! Name of Object 1

