
OS:Version,
  {53b4df37-a59c-4e3d-82bd-947baee44ca3}, ! Handle
  0.9.3;                                  ! Version Identifier

OS:SizingPeriod:DesignDay,
  {04192eff-b544-4417-a557-14292c69de43}, ! Handle
  Bettles Field Ann Htg 99% Condns DB,    ! Name
  -42.4,                                  ! Maximum Dry-Bulb Temperature {C}
  0,                                      ! Daily Dry-Bulb Temperature Range {deltaC}
  -42.4,                                  ! Humidity Indicating Conditions at Maximum Dry-Bulb {BasedOnField A3}
  98992,                                  ! Barometric Pressure {Pa}
  0.6,                                    ! Wind Speed {m/s}
  340,                                    ! Wind Direction {deg}
  0,                                      ! Sky Clearness
  0,                                      ! Rain Indicator
  0,                                      ! Snow Indicator
  21,                                     ! Day of Month
  1,                                      ! Month
  WinterDesignDay,                        ! Day Type
  0,                                      ! Daylight Saving Time Indicator
  Wetbulb,                                ! Humidity Indicating Type
  ,                                       ! Humidity Indicating Day Schedule Name
  DefaultMultipliers,                     ! Dry-Bulb Temperature Range Modifier Type
  ,                                       ! Dry-Bulb Temperature Range Modifier Schedule Name
  ASHRAEClearSky;                         ! Solar Model Indicator

OS:ComponentData,
  {dd8ba027-9658-4dca-90c3-fb65b6a9df0c}, ! Handle
  Component Data 1,                       ! Name
  {fe09863f-b233-41d5-b7fd-70aeb0626e3a}, ! UUID
  {f8a6650b-196e-4775-ba25-b557b056d1e0}, ! Version UUID
  1366304766,                             ! Creation Timestamp
  1366304766,                             ! Version Timestamp
  {04192eff-b544-4417-a557-14292c69de43}; ! Name of Object 1

