
OS:Version,
  {0bbce33c-6d10-46fa-a339-3c8f725e4578}, ! Handle
  0.9.3;                                  ! Version Identifier

OS:SizingPeriod:DesignDay,
  {2ebb7411-a9f4-400e-b9a6-9f9b7381fd78}, ! Handle
  Johnstown Cambria County Ap Ann Htg 99.6% Condns DB, ! Name
  -16.4,                                  ! Maximum Dry-Bulb Temperature {C}
  0,                                      ! Daily Dry-Bulb Temperature Range {deltaC}
  -16.4,                                  ! Humidity Indicating Conditions at Maximum Dry-Bulb {BasedOnField A3}
  93250,                                  ! Barometric Pressure {Pa}
  5.8,                                    ! Wind Speed {m/s}
  290,                                    ! Wind Direction {deg}
  0,                                      ! Sky Clearness
  0,                                      ! Rain Indicator
  0,                                      ! Snow Indicator
  21,                                     ! Day of Month
  1,                                      ! Month
  WinterDesignDay,                        ! Day Type
  0,                                      ! Daylight Saving Time Indicator
  Wetbulb,                                ! Humidity Indicating Type
  ,                                       ! Humidity Indicating Day Schedule Name
  DefaultMultipliers,                     ! Dry-Bulb Temperature Range Modifier Type
  ,                                       ! Dry-Bulb Temperature Range Modifier Schedule Name
  ASHRAEClearSky;                         ! Solar Model Indicator

OS:ComponentData,
  {2af4bddf-0fe5-4443-8738-106ede64bf96}, ! Handle
  Component Data 1,                       ! Name
  {4eff2c1a-2c05-4eed-88e7-1d0cd4e2cd40}, ! UUID
  {17449b6b-5b3b-45ff-a29f-b9e56c3a0465}, ! Version UUID
  1366310200,                             ! Creation Timestamp
  1366310200,                             ! Version Timestamp
  {2ebb7411-a9f4-400e-b9a6-9f9b7381fd78}; ! Name of Object 1

