
OS:Version,
  {e8a83fb0-25f9-47b7-bfea-aefd0d916a0a}, ! Handle
  0.9.3;                                  ! Version Identifier

OS:SizingPeriod:DesignDay,
  {9ba82be5-adda-4688-a9ad-0037f55405ac}, ! Handle
  Crane Lake  Awos Ann Clg 1% Condns DP=>MDB, ! Name
  24,                                     ! Maximum Dry-Bulb Temperature {C}
  12,                                     ! Daily Dry-Bulb Temperature Range {deltaC}
  20,                                     ! Humidity Indicating Conditions at Maximum Dry-Bulb {BasedOnField A3}
  97190,                                  ! Barometric Pressure {Pa}
  2.5,                                    ! Wind Speed {m/s}
  180,                                    ! Wind Direction {deg}
  0,                                      ! Sky Clearness
  0,                                      ! Rain Indicator
  0,                                      ! Snow Indicator
  21,                                     ! Day of Month
  7,                                      ! Month
  SummerDesignDay,                        ! Day Type
  0,                                      ! Daylight Saving Time Indicator
  Dewpoint,                               ! Humidity Indicating Type
  ,                                       ! Humidity Indicating Day Schedule Name
  DefaultMultipliers,                     ! Dry-Bulb Temperature Range Modifier Type
  ,                                       ! Dry-Bulb Temperature Range Modifier Schedule Name
  ASHRAETau,                              ! Solar Model Indicator
  ,                                       ! Beam Solar Day Schedule Name
  ,                                       ! Diffuse Solar Day Schedule Name
  0.4,                                    ! ASHRAE Taub {dimensionless}
  2.217;                                  ! ASHRAE Taud {dimensionless}

OS:ComponentData,
  {fc5732a3-ac80-4bcf-b3a2-1c69b4c0d8f9}, ! Handle
  Component Data 1,                       ! Name
  {b7beed10-3cb6-4eb4-bf69-1932ba7d21b8}, ! UUID
  {ce3268ed-cd74-4879-914b-f46fb6dd067f}, ! Version UUID
  1366308185,                             ! Creation Timestamp
  1366308185,                             ! Version Timestamp
  {9ba82be5-adda-4688-a9ad-0037f55405ac}; ! Name of Object 1

