
OS:Version,
  {120a73f6-aa58-4baf-bd2d-1a0accf583c1}, ! Handle
  0.9.3;                                  ! Version Identifier

OS:SizingPeriod:DesignDay,
  {cc67bdbf-4955-42d7-a5a4-6381f8081f96}, ! Handle
  Crossville Memorial Ap Ann Clg 2% Condns Enth=>MDB, ! Name
  27.2,                                   ! Maximum Dry-Bulb Temperature {C}
  10.1,                                   ! Daily Dry-Bulb Temperature Range {deltaC}
  70600,                                  ! Humidity Indicating Conditions at Maximum Dry-Bulb {BasedOnField A3}
  94674,                                  ! Barometric Pressure {Pa}
  3.1,                                    ! Wind Speed {m/s}
  270,                                    ! Wind Direction {deg}
  0,                                      ! Sky Clearness
  0,                                      ! Rain Indicator
  0,                                      ! Snow Indicator
  21,                                     ! Day of Month
  7,                                      ! Month
  SummerDesignDay,                        ! Day Type
  0,                                      ! Daylight Saving Time Indicator
  Enthalpy,                               ! Humidity Indicating Type
  ,                                       ! Humidity Indicating Day Schedule Name
  DefaultMultipliers,                     ! Dry-Bulb Temperature Range Modifier Type
  ,                                       ! Dry-Bulb Temperature Range Modifier Schedule Name
  ASHRAETau,                              ! Solar Model Indicator
  ,                                       ! Beam Solar Day Schedule Name
  ,                                       ! Diffuse Solar Day Schedule Name
  0.507,                                  ! ASHRAE Taub {dimensionless}
  1.867;                                  ! ASHRAE Taud {dimensionless}

OS:ComponentData,
  {50b17fe1-cf82-4a8f-a938-bd69c7ece205}, ! Handle
  Component Data 1,                       ! Name
  {b5539724-7aad-44e5-b60c-15f51c489420}, ! UUID
  {c9c79630-67f8-4ae8-9c73-65e80da73a83}, ! Version UUID
  1366310498,                             ! Creation Timestamp
  1366310498,                             ! Version Timestamp
  {cc67bdbf-4955-42d7-a5a4-6381f8081f96}; ! Name of Object 1

