
OS:Version,
  {7374541f-0e3a-4eee-86fd-83a8aca31d34}, ! Handle
  0.9.3;                                  ! Version Identifier

OS:SizingPeriod:DesignDay,
  {63da2f8c-c3c6-4015-b2f4-d556de94d59c}, ! Handle
  Douglas Bisbee Douglas Intl A Ann Htg Wind 99% Condns WS=>MCDB, ! Name
  12.5,                                   ! Maximum Dry-Bulb Temperature {C}
  0,                                      ! Daily Dry-Bulb Temperature Range {deltaC}
  12.5,                                   ! Humidity Indicating Conditions at Maximum Dry-Bulb {BasedOnField A3}
  87193,                                  ! Barometric Pressure {Pa}
  9.5,                                    ! Wind Speed {m/s}
  10,                                     ! Wind Direction {deg}
  0,                                      ! Sky Clearness
  0,                                      ! Rain Indicator
  0,                                      ! Snow Indicator
  21,                                     ! Day of Month
  12,                                     ! Month
  WinterDesignDay,                        ! Day Type
  0,                                      ! Daylight Saving Time Indicator
  Wetbulb,                                ! Humidity Indicating Type
  ,                                       ! Humidity Indicating Day Schedule Name
  DefaultMultipliers,                     ! Dry-Bulb Temperature Range Modifier Type
  ,                                       ! Dry-Bulb Temperature Range Modifier Schedule Name
  ASHRAEClearSky;                         ! Solar Model Indicator

OS:ComponentData,
  {5e89b718-fb64-4b33-838e-1ee6b1420472}, ! Handle
  Component Data 1,                       ! Name
  {75c89c2c-56d1-40d3-8909-84a7a323f1e1}, ! UUID
  {80a45038-78af-48dc-8b60-3e9623917c29}, ! Version UUID
  1366306270,                             ! Creation Timestamp
  1366306270,                             ! Version Timestamp
  {63da2f8c-c3c6-4015-b2f4-d556de94d59c}; ! Name of Object 1

