
OS:Version,
  {5566e066-2d50-4a8c-ac0f-e1b3f2a2d24a}, ! Handle
  0.9.3;                                  ! Version Identifier

OS:SizingPeriod:DesignDay,
  {ecfbbca8-122d-4417-ba3b-a55c1cf4b1f2}, ! Handle
  Lufkin Ann Clg 2% Condns DB=>MWB,       ! Name
  34,                                     ! Maximum Dry-Bulb Temperature {C}
  11.4,                                   ! Daily Dry-Bulb Temperature Range {deltaC}
  24.7,                                   ! Humidity Indicating Conditions at Maximum Dry-Bulb {BasedOnField A3}
  100272,                                 ! Barometric Pressure {Pa}
  3.4,                                    ! Wind Speed {m/s}
  200,                                    ! Wind Direction {deg}
  0,                                      ! Sky Clearness
  0,                                      ! Rain Indicator
  0,                                      ! Snow Indicator
  21,                                     ! Day of Month
  7,                                      ! Month
  SummerDesignDay,                        ! Day Type
  0,                                      ! Daylight Saving Time Indicator
  Wetbulb,                                ! Humidity Indicating Type
  ,                                       ! Humidity Indicating Day Schedule Name
  DefaultMultipliers,                     ! Dry-Bulb Temperature Range Modifier Type
  ,                                       ! Dry-Bulb Temperature Range Modifier Schedule Name
  ASHRAETau,                              ! Solar Model Indicator
  ,                                       ! Beam Solar Day Schedule Name
  ,                                       ! Diffuse Solar Day Schedule Name
  0.491,                                  ! ASHRAE Taub {dimensionless}
  2.003;                                  ! ASHRAE Taud {dimensionless}

OS:ComponentData,
  {bf460ca6-6883-4646-8a73-a7ab81169b04}, ! Handle
  Component Data 1,                       ! Name
  {279232d4-f5e0-4c33-8f0f-9a4509c7a3d9}, ! UUID
  {472afd68-6fb7-4ee0-9279-3dc96b9b624d}, ! Version UUID
  1366310803,                             ! Creation Timestamp
  1366310803,                             ! Version Timestamp
  {ecfbbca8-122d-4417-ba3b-a55c1cf4b1f2}; ! Name of Object 1

