
OS:Version,
  {e61b580b-e6e1-4b7b-a8b7-bbd72796971b}, ! Handle
  0.9.3;                                  ! Version Identifier

OS:SizingPeriod:DesignDay,
  {a72c90df-78cc-491f-b080-fab40c755573}, ! Handle
  BAKERSFIELD Ann Htg 99% Condns DB,      ! Name
  1.6,                                    ! Maximum Dry-Bulb Temperature {C}
  0,                                      ! Daily Dry-Bulb Temperature Range {deltaC}
  1.6,                                    ! Humidity Indicating Conditions at Maximum Dry-Bulb {BasedOnField A3}
  99536,                                  ! Barometric Pressure {Pa}
  1.7,                                    ! Wind Speed {m/s}
  90,                                     ! Wind Direction {deg}
  0,                                      ! Sky Clearness
  0,                                      ! Rain Indicator
  0,                                      ! Snow Indicator
  21,                                     ! Day of Month
  12,                                     ! Month
  WinterDesignDay,                        ! Day Type
  0,                                      ! Daylight Saving Time Indicator
  Wetbulb,                                ! Humidity Indicating Type
  ,                                       ! Humidity Indicating Day Schedule Name
  DefaultMultipliers,                     ! Dry-Bulb Temperature Range Modifier Type
  ,                                       ! Dry-Bulb Temperature Range Modifier Schedule Name
  ASHRAEClearSky;                         ! Solar Model Indicator

OS:ComponentData,
  {9f083577-9c22-4255-8d31-3402e1392dd4}, ! Handle
  Component Data 1,                       ! Name
  {cb422418-0688-4524-b991-a6a80e1a8ad1}, ! UUID
  {b59f1913-1144-4b7c-a32c-2ff000949c8b}, ! Version UUID
  1366306368,                             ! Creation Timestamp
  1366306368,                             ! Version Timestamp
  {a72c90df-78cc-491f-b080-fab40c755573}; ! Name of Object 1

