
OS:Version,
  {ad108f74-1696-4d9c-b8b1-700c565e6dfd}, ! Handle
  0.9.3;                                  ! Version Identifier

OS:SizingPeriod:DesignDay,
  {b260c13d-c456-4b3c-9c06-507d9b16af22}, ! Handle
  Idaho Falls Fanning Field Ann Clg 1% Condns WB=>MDB, ! Name
  27.9,                                   ! Maximum Dry-Bulb Temperature {C}
  18.9,                                   ! Daily Dry-Bulb Temperature Range {deltaC}
  17.3,                                   ! Humidity Indicating Conditions at Maximum Dry-Bulb {BasedOnField A3}
  85170,                                  ! Barometric Pressure {Pa}
  4.8,                                    ! Wind Speed {m/s}
  200,                                    ! Wind Direction {deg}
  0,                                      ! Sky Clearness
  0,                                      ! Rain Indicator
  0,                                      ! Snow Indicator
  21,                                     ! Day of Month
  7,                                      ! Month
  SummerDesignDay,                        ! Day Type
  0,                                      ! Daylight Saving Time Indicator
  Wetbulb,                                ! Humidity Indicating Type
  ,                                       ! Humidity Indicating Day Schedule Name
  DefaultMultipliers,                     ! Dry-Bulb Temperature Range Modifier Type
  ,                                       ! Dry-Bulb Temperature Range Modifier Schedule Name
  ASHRAETau,                              ! Solar Model Indicator
  ,                                       ! Beam Solar Day Schedule Name
  ,                                       ! Diffuse Solar Day Schedule Name
  0.398,                                  ! ASHRAE Taub {dimensionless}
  2.067;                                  ! ASHRAE Taud {dimensionless}

OS:ComponentData,
  {3eaadd66-f360-47fc-b3c0-12fb35228605}, ! Handle
  Component Data 1,                       ! Name
  {477a5915-1372-46ae-bafd-b6ffd39432cf}, ! UUID
  {0e3dd603-b7fd-4b66-8888-d52eb06df54e}, ! Version UUID
  1366307285,                             ! Creation Timestamp
  1366307285,                             ! Version Timestamp
  {b260c13d-c456-4b3c-9c06-507d9b16af22}; ! Name of Object 1

