
OS:Version,
  {553be047-fe97-4e83-a7b6-e24a4bead726}, ! Handle
  0.9.3;                                  ! Version Identifier

OS:SizingPeriod:DesignDay,
  {ce85cf7c-5e17-4024-b894-e9151c6f00cd}, ! Handle
  Houston William P Hobby Ap Ann Clg .4% Condns WB=>MDB, ! Name
  31.7,                                   ! Maximum Dry-Bulb Temperature {C}
  9,                                      ! Daily Dry-Bulb Temperature Range {deltaC}
  26.9,                                   ! Humidity Indicating Conditions at Maximum Dry-Bulb {BasedOnField A3}
  101169,                                 ! Barometric Pressure {Pa}
  3.5,                                    ! Wind Speed {m/s}
  180,                                    ! Wind Direction {deg}
  0,                                      ! Sky Clearness
  0,                                      ! Rain Indicator
  0,                                      ! Snow Indicator
  21,                                     ! Day of Month
  8,                                      ! Month
  SummerDesignDay,                        ! Day Type
  0,                                      ! Daylight Saving Time Indicator
  Wetbulb,                                ! Humidity Indicating Type
  ,                                       ! Humidity Indicating Day Schedule Name
  DefaultMultipliers,                     ! Dry-Bulb Temperature Range Modifier Type
  ,                                       ! Dry-Bulb Temperature Range Modifier Schedule Name
  ASHRAETau,                              ! Solar Model Indicator
  ,                                       ! Beam Solar Day Schedule Name
  ,                                       ! Diffuse Solar Day Schedule Name
  0.507,                                  ! ASHRAE Taub {dimensionless}
  1.944;                                  ! ASHRAE Taud {dimensionless}

OS:ComponentData,
  {38b4f50b-2f8f-40cf-ade1-67183acbbf94}, ! Handle
  Component Data 1,                       ! Name
  {25385287-f19a-4358-afe3-3c361174839b}, ! UUID
  {9df1fcdf-9236-4a0c-a263-2633ad3cefb7}, ! Version UUID
  1366310760,                             ! Creation Timestamp
  1366310760,                             ! Version Timestamp
  {ce85cf7c-5e17-4024-b894-e9151c6f00cd}; ! Name of Object 1

