
OS:Version,
  {4d9fddda-6176-4fb3-a30f-4da479eb8982}, ! Handle
  0.9.3;                                  ! Version Identifier

OS:SizingPeriod:DesignDay,
  {d1a31e27-c559-45f8-8941-d630383f4dd0}, ! Handle
  FRESNO Ann Clg .4% Condns DP=>MDB,      ! Name
  29.5,                                   ! Maximum Dry-Bulb Temperature {C}
  16.4,                                   ! Daily Dry-Bulb Temperature Range {deltaC}
  18.7,                                   ! Humidity Indicating Conditions at Maximum Dry-Bulb {BasedOnField A3}
  100129,                                 ! Barometric Pressure {Pa}
  3.7,                                    ! Wind Speed {m/s}
  300,                                    ! Wind Direction {deg}
  0,                                      ! Sky Clearness
  0,                                      ! Rain Indicator
  0,                                      ! Snow Indicator
  21,                                     ! Day of Month
  7,                                      ! Month
  SummerDesignDay,                        ! Day Type
  0,                                      ! Daylight Saving Time Indicator
  Dewpoint,                               ! Humidity Indicating Type
  ,                                       ! Humidity Indicating Day Schedule Name
  DefaultMultipliers,                     ! Dry-Bulb Temperature Range Modifier Type
  ,                                       ! Dry-Bulb Temperature Range Modifier Schedule Name
  ASHRAETau,                              ! Solar Model Indicator
  ,                                       ! Beam Solar Day Schedule Name
  ,                                       ! Diffuse Solar Day Schedule Name
  0.428,                                  ! ASHRAE Taub {dimensionless}
  2.152;                                  ! ASHRAE Taud {dimensionless}

OS:ComponentData,
  {ab904105-b8ff-49d5-88e0-eae407c27d8a}, ! Handle
  Component Data 1,                       ! Name
  {009fe727-9073-4f54-9f52-9eb18260225d}, ! UUID
  {b53c8f0b-024b-4528-86d4-9056085cb5fc}, ! Version UUID
  1366306433,                             ! Creation Timestamp
  1366306433,                             ! Version Timestamp
  {d1a31e27-c559-45f8-8941-d630383f4dd0}; ! Name of Object 1

