
OS:Version,
  {8d5ac37b-0bc7-40d4-b475-a44c0966f237}, ! Handle
  0.9.3;                                  ! Version Identifier

OS:SizingPeriod:DesignDay,
  {cf16aef9-8480-4169-8306-c3945470c5e2}, ! Handle
  Fullerton Municipal Ann Clg .4% Condns DP=>MDB, ! Name
  26.5,                                   ! Maximum Dry-Bulb Temperature {C}
  10.5,                                   ! Daily Dry-Bulb Temperature Range {deltaC}
  20.2,                                   ! Humidity Indicating Conditions at Maximum Dry-Bulb {BasedOnField A3}
  100977,                                 ! Barometric Pressure {Pa}
  3.2,                                    ! Wind Speed {m/s}
  200,                                    ! Wind Direction {deg}
  0,                                      ! Sky Clearness
  0,                                      ! Rain Indicator
  0,                                      ! Snow Indicator
  21,                                     ! Day of Month
  8,                                      ! Month
  SummerDesignDay,                        ! Day Type
  0,                                      ! Daylight Saving Time Indicator
  Dewpoint,                               ! Humidity Indicating Type
  ,                                       ! Humidity Indicating Day Schedule Name
  DefaultMultipliers,                     ! Dry-Bulb Temperature Range Modifier Type
  ,                                       ! Dry-Bulb Temperature Range Modifier Schedule Name
  ASHRAETau,                              ! Solar Model Indicator
  ,                                       ! Beam Solar Day Schedule Name
  ,                                       ! Diffuse Solar Day Schedule Name
  0.453,                                  ! ASHRAE Taub {dimensionless}
  2.056;                                  ! ASHRAE Taud {dimensionless}

OS:ComponentData,
  {cbd4d9ac-3c38-4549-b2a6-d76bfd5214d3}, ! Handle
  Component Data 1,                       ! Name
  {4b745625-fb7f-41b2-9ae7-082692a4b5f6}, ! UUID
  {d88b5e7c-0a7d-4f17-9135-dc383a0ae0c1}, ! Version UUID
  1366306442,                             ! Creation Timestamp
  1366306442,                             ! Version Timestamp
  {cf16aef9-8480-4169-8306-c3945470c5e2}; ! Name of Object 1

