
OS:Version,
  {e69daa1b-2d80-4354-8f4b-8a9c30a85f6b}, ! Handle
  0.9.3;                                  ! Version Identifier

OS:SizingPeriod:DesignDay,
  {af1a708e-38ed-470b-9fff-d867dbd3152e}, ! Handle
  Ambler Ann Htg Wind 99.6% Condns WS=>MCDB, ! Name
  -14.9,                                  ! Maximum Dry-Bulb Temperature {C}
  0,                                      ! Daily Dry-Bulb Temperature Range {deltaC}
  -14.9,                                  ! Humidity Indicating Conditions at Maximum Dry-Bulb {BasedOnField A3}
  100272,                                 ! Barometric Pressure {Pa}
  10,                                     ! Wind Speed {m/s}
  40,                                     ! Wind Direction {deg}
  0,                                      ! Sky Clearness
  0,                                      ! Rain Indicator
  0,                                      ! Snow Indicator
  21,                                     ! Day of Month
  1,                                      ! Month
  WinterDesignDay,                        ! Day Type
  0,                                      ! Daylight Saving Time Indicator
  Wetbulb,                                ! Humidity Indicating Type
  ,                                       ! Humidity Indicating Day Schedule Name
  DefaultMultipliers,                     ! Dry-Bulb Temperature Range Modifier Type
  ,                                       ! Dry-Bulb Temperature Range Modifier Schedule Name
  ASHRAEClearSky;                         ! Solar Model Indicator

OS:ComponentData,
  {fa8134cb-40e6-4b0d-bebd-fbe073cfffde}, ! Handle
  Component Data 1,                       ! Name
  {4a57f9c2-dff2-4f18-b7de-e0368184f003}, ! UUID
  {2ad712b3-b8ad-476d-a389-c3c02e9976dd}, ! Version UUID
  1366304683,                             ! Creation Timestamp
  1366304683,                             ! Version Timestamp
  {af1a708e-38ed-470b-9fff-d867dbd3152e}; ! Name of Object 1

