
OS:Version,
  {a6486f47-0c93-4373-a529-14d9dfa84d0f}, ! Handle
  0.9.3;                                  ! Version Identifier

OS:SizingPeriod:DesignDay,
  {56893c9c-b55d-483c-8263-f2b89bc26c15}, ! Handle
  Columbia Metro Arpt Ann Htg Wind 99% Condns WS=>MCDB, ! Name
  10.8,                                   ! Maximum Dry-Bulb Temperature {C}
  0,                                      ! Daily Dry-Bulb Temperature Range {deltaC}
  10.8,                                   ! Humidity Indicating Conditions at Maximum Dry-Bulb {BasedOnField A3}
  100547,                                 ! Barometric Pressure {Pa}
  9.2,                                    ! Wind Speed {m/s}
  270,                                    ! Wind Direction {deg}
  0,                                      ! Sky Clearness
  0,                                      ! Rain Indicator
  0,                                      ! Snow Indicator
  21,                                     ! Day of Month
  1,                                      ! Month
  WinterDesignDay,                        ! Day Type
  0,                                      ! Daylight Saving Time Indicator
  Wetbulb,                                ! Humidity Indicating Type
  ,                                       ! Humidity Indicating Day Schedule Name
  DefaultMultipliers,                     ! Dry-Bulb Temperature Range Modifier Type
  ,                                       ! Dry-Bulb Temperature Range Modifier Schedule Name
  ASHRAEClearSky;                         ! Solar Model Indicator

OS:ComponentData,
  {53d56598-eaf2-4d50-a5f9-633744bb0305}, ! Handle
  Component Data 1,                       ! Name
  {98154e27-63b4-4507-a9a5-be755ace6cb7}, ! UUID
  {c5bd64fd-5233-4c79-9308-38f73b9a12e3}, ! Version UUID
  1366310347,                             ! Creation Timestamp
  1366310347,                             ! Version Timestamp
  {56893c9c-b55d-483c-8263-f2b89bc26c15}; ! Name of Object 1

