
OS:Version,
  {1d381aec-627e-4e2c-809d-1a8ea345cd54}, ! Handle
  0.9.3;                                  ! Version Identifier

OS:SizingPeriod:DesignDay,
  {e16243de-d1a9-4502-86ee-154912ee3aaa}, ! Handle
  Dothan Municipal Ap Ann Clg .4% Condns WB=>MDB, ! Name
  31.8,                                   ! Maximum Dry-Bulb Temperature {C}
  9.7,                                    ! Daily Dry-Bulb Temperature Range {deltaC}
  26.7,                                   ! Humidity Indicating Conditions at Maximum Dry-Bulb {BasedOnField A3}
  100153,                                 ! Barometric Pressure {Pa}
  3.7,                                    ! Wind Speed {m/s}
  300,                                    ! Wind Direction {deg}
  0,                                      ! Sky Clearness
  0,                                      ! Rain Indicator
  0,                                      ! Snow Indicator
  21,                                     ! Day of Month
  7,                                      ! Month
  SummerDesignDay,                        ! Day Type
  0,                                      ! Daylight Saving Time Indicator
  Wetbulb,                                ! Humidity Indicating Type
  ,                                       ! Humidity Indicating Day Schedule Name
  DefaultMultipliers,                     ! Dry-Bulb Temperature Range Modifier Type
  ,                                       ! Dry-Bulb Temperature Range Modifier Schedule Name
  ASHRAETau,                              ! Solar Model Indicator
  ,                                       ! Beam Solar Day Schedule Name
  ,                                       ! Diffuse Solar Day Schedule Name
  0.544,                                  ! ASHRAE Taub {dimensionless}
  1.83;                                   ! ASHRAE Taud {dimensionless}

OS:ComponentData,
  {bd7c2af0-f31c-4f8a-8c3a-6b24689daa3a}, ! Handle
  Component Data 1,                       ! Name
  {faeb8805-67d6-41a7-8cb1-a38a80477911}, ! UUID
  {7a14bf1c-cfd7-4ed8-8e64-e4dcc3273cf0}, ! Version UUID
  1366305652,                             ! Creation Timestamp
  1366305652,                             ! Version Timestamp
  {e16243de-d1a9-4502-86ee-154912ee3aaa}; ! Name of Object 1

