
OS:Version,
  {931fb453-133b-4785-a57d-13ad8036e285}, ! Handle
  0.9.3;                                  ! Version Identifier

OS:SizingPeriod:DesignDay,
  {0e50401e-2fe0-470c-ab45-2530bcc84019}, ! Handle
  Keesler Afb Ann Clg 2% Condns DB=>MWB,  ! Name
  32.4,                                   ! Maximum Dry-Bulb Temperature {C}
  7.5,                                    ! Daily Dry-Bulb Temperature Range {deltaC}
  26.1,                                   ! Humidity Indicating Conditions at Maximum Dry-Bulb {BasedOnField A3}
  101229,                                 ! Barometric Pressure {Pa}
  3.7,                                    ! Wind Speed {m/s}
  200,                                    ! Wind Direction {deg}
  0,                                      ! Sky Clearness
  0,                                      ! Rain Indicator
  0,                                      ! Snow Indicator
  21,                                     ! Day of Month
  7,                                      ! Month
  SummerDesignDay,                        ! Day Type
  0,                                      ! Daylight Saving Time Indicator
  Wetbulb,                                ! Humidity Indicating Type
  ,                                       ! Humidity Indicating Day Schedule Name
  DefaultMultipliers,                     ! Dry-Bulb Temperature Range Modifier Type
  ,                                       ! Dry-Bulb Temperature Range Modifier Schedule Name
  ASHRAETau,                              ! Solar Model Indicator
  ,                                       ! Beam Solar Day Schedule Name
  ,                                       ! Diffuse Solar Day Schedule Name
  0.556,                                  ! ASHRAE Taub {dimensionless}
  1.829;                                  ! ASHRAE Taud {dimensionless}

OS:ComponentData,
  {34f4422a-3e4f-40a6-87c7-1e74fece2acb}, ! Handle
  Component Data 1,                       ! Name
  {898d2def-dd6f-4616-8599-959970fd19d4}, ! UUID
  {1088b372-883e-4fde-bb49-d87bffb4ca12}, ! Version UUID
  1366308607,                             ! Creation Timestamp
  1366308607,                             ! Version Timestamp
  {0e50401e-2fe0-470c-ab45-2530bcc84019}; ! Name of Object 1

