
OS:Version,
  {7a716222-3803-402d-b815-a2f6dfa3dc3b}, ! Handle
  0.9.3;                                  ! Version Identifier

OS:SizingPeriod:DesignDay,
  {64230098-d889-4959-a8c6-a5e5ed56c673}, ! Handle
  HILO Ann Htg Wind 99% Condns WS=>MCDB,  ! Name
  23.7,                                   ! Maximum Dry-Bulb Temperature {C}
  0,                                      ! Daily Dry-Bulb Temperature Range {deltaC}
  23.7,                                   ! Humidity Indicating Conditions at Maximum Dry-Bulb {BasedOnField A3}
  101193,                                 ! Barometric Pressure {Pa}
  9.1,                                    ! Wind Speed {m/s}
  220,                                    ! Wind Direction {deg}
  0,                                      ! Sky Clearness
  0,                                      ! Rain Indicator
  0,                                      ! Snow Indicator
  21,                                     ! Day of Month
  2,                                      ! Month
  WinterDesignDay,                        ! Day Type
  0,                                      ! Daylight Saving Time Indicator
  Wetbulb,                                ! Humidity Indicating Type
  ,                                       ! Humidity Indicating Day Schedule Name
  DefaultMultipliers,                     ! Dry-Bulb Temperature Range Modifier Type
  ,                                       ! Dry-Bulb Temperature Range Modifier Schedule Name
  ASHRAEClearSky;                         ! Solar Model Indicator

OS:ComponentData,
  {be5b0a63-aef7-49d6-8bca-2539fe289ed7}, ! Handle
  Component Data 1,                       ! Name
  {60eb127b-a26b-4e41-8c89-89dca724b16d}, ! UUID
  {0aa54a3e-ad11-4329-9c25-76199c1aafcb}, ! Version UUID
  1366307076,                             ! Creation Timestamp
  1366307076,                             ! Version Timestamp
  {64230098-d889-4959-a8c6-a5e5ed56c673}; ! Name of Object 1

