
OS:Version,
  {843528bf-3835-4c09-8f1e-29e3dc7fe575}, ! Handle
  0.9.3;                                  ! Version Identifier

OS:SizingPeriod:DesignDay,
  {a2972b70-2d76-4531-ac70-331a6138c68f}, ! Handle
  LA_CROSSE Ann Hum_n 99.6% Condns DP=>MCDB, ! Name
  -24,                                    ! Maximum Dry-Bulb Temperature {C}
  0,                                      ! Daily Dry-Bulb Temperature Range {deltaC}
  -29.5,                                  ! Humidity Indicating Conditions at Maximum Dry-Bulb {BasedOnField A3}
  98886,                                  ! Barometric Pressure {Pa}
  3.4,                                    ! Wind Speed {m/s}
  330,                                    ! Wind Direction {deg}
  0,                                      ! Sky Clearness
  0,                                      ! Rain Indicator
  0,                                      ! Snow Indicator
  21,                                     ! Day of Month
  1,                                      ! Month
  WinterDesignDay,                        ! Day Type
  0,                                      ! Daylight Saving Time Indicator
  Dewpoint,                               ! Humidity Indicating Type
  ,                                       ! Humidity Indicating Day Schedule Name
  DefaultMultipliers,                     ! Dry-Bulb Temperature Range Modifier Type
  ,                                       ! Dry-Bulb Temperature Range Modifier Schedule Name
  ASHRAEClearSky;                         ! Solar Model Indicator

OS:ComponentData,
  {e913803e-f050-467f-ae99-52918fe90b67}, ! Handle
  Component Data 1,                       ! Name
  {aa34e0fa-dc9a-40e3-a4e3-e8126fdb26ba}, ! UUID
  {665723d9-2ef1-4f52-8ee8-c53a5d9baa7f}, ! Version UUID
  1366311502,                             ! Creation Timestamp
  1366311502,                             ! Version Timestamp
  {a2972b70-2d76-4531-ac70-331a6138c68f}; ! Name of Object 1

