
OS:Version,
  {11936d21-4b14-441d-9cfa-5dc909166126}, ! Handle
  0.9.3;                                  ! Version Identifier

OS:SizingPeriod:DesignDay,
  {c3f5fc5c-9ada-429e-8b93-0d066c455813}, ! Handle
  Bangor/Dow AFB Ann Clg .4% Condns Enth=>MDB, ! Name
  28.3,                                   ! Maximum Dry-Bulb Temperature {C}
  11.3,                                   ! Daily Dry-Bulb Temperature Range {deltaC}
  68200,                                  ! Humidity Indicating Conditions at Maximum Dry-Bulb {BasedOnField A3}
  100654,                                 ! Barometric Pressure {Pa}
  4.5,                                    ! Wind Speed {m/s}
  280,                                    ! Wind Direction {deg}
  0,                                      ! Sky Clearness
  0,                                      ! Rain Indicator
  0,                                      ! Snow Indicator
  21,                                     ! Day of Month
  7,                                      ! Month
  SummerDesignDay,                        ! Day Type
  0,                                      ! Daylight Saving Time Indicator
  Enthalpy,                               ! Humidity Indicating Type
  ,                                       ! Humidity Indicating Day Schedule Name
  DefaultMultipliers,                     ! Dry-Bulb Temperature Range Modifier Type
  ,                                       ! Dry-Bulb Temperature Range Modifier Schedule Name
  ASHRAETau,                              ! Solar Model Indicator
  ,                                       ! Beam Solar Day Schedule Name
  ,                                       ! Diffuse Solar Day Schedule Name
  0.458,                                  ! ASHRAE Taub {dimensionless}
  2.019;                                  ! ASHRAE Taud {dimensionless}

OS:ComponentData,
  {28f91e33-7468-4225-b63a-3da6bf547b67}, ! Handle
  Component Data 1,                       ! Name
  {6aa27f3f-398c-410e-9ec6-dfc924e1e03a}, ! UUID
  {077243aa-6f77-4f62-a3df-56b3cca2f5af}, ! Version UUID
  1366307872,                             ! Creation Timestamp
  1366307872,                             ! Version Timestamp
  {c3f5fc5c-9ada-429e-8b93-0d066c455813}; ! Name of Object 1

