
OS:Version,
  {faa3a549-4716-4588-b157-e3e268646782}, ! Handle
  0.9.3;                                  ! Version Identifier

OS:SizingPeriod:DesignDay,
  {0100b16f-d534-44e0-8185-fdfd33c24157}, ! Handle
  Alpena County Regional Ap Ann Clg 1% Condns DP=>MDB, ! Name
  25.1,                                   ! Maximum Dry-Bulb Temperature {C}
  12.7,                                   ! Daily Dry-Bulb Temperature Range {deltaC}
  20.7,                                   ! Humidity Indicating Conditions at Maximum Dry-Bulb {BasedOnField A3}
  98828,                                  ! Barometric Pressure {Pa}
  4.8,                                    ! Wind Speed {m/s}
  230,                                    ! Wind Direction {deg}
  0,                                      ! Sky Clearness
  0,                                      ! Rain Indicator
  0,                                      ! Snow Indicator
  21,                                     ! Day of Month
  7,                                      ! Month
  SummerDesignDay,                        ! Day Type
  0,                                      ! Daylight Saving Time Indicator
  Dewpoint,                               ! Humidity Indicating Type
  ,                                       ! Humidity Indicating Day Schedule Name
  DefaultMultipliers,                     ! Dry-Bulb Temperature Range Modifier Type
  ,                                       ! Dry-Bulb Temperature Range Modifier Schedule Name
  ASHRAETau,                              ! Solar Model Indicator
  ,                                       ! Beam Solar Day Schedule Name
  ,                                       ! Diffuse Solar Day Schedule Name
  0.42,                                   ! ASHRAE Taub {dimensionless}
  2.176;                                  ! ASHRAE Taud {dimensionless}

OS:ComponentData,
  {6cb05686-cc73-4a8e-8a39-fee2ae3e1dc8}, ! Handle
  Component Data 1,                       ! Name
  {636f2200-c6d8-408d-8867-1f9f54680ba5}, ! UUID
  {bbfbc301-ef9b-42db-b8d9-6d7a31462153}, ! Version UUID
  1366307949,                             ! Creation Timestamp
  1366307949,                             ! Version Timestamp
  {0100b16f-d534-44e0-8185-fdfd33c24157}; ! Name of Object 1

