
OS:Version,
  {5c2544d4-09e0-4183-a839-873410c60c3f}, ! Handle
  0.9.3;                                  ! Version Identifier

OS:SizingPeriod:DesignDay,
  {0f90060b-bf1c-49cd-b525-2c744122ddff}, ! Handle
  Allentown Lehigh Valley Intl Ann Clg 2% Condns DB=>MWB, ! Name
  29.8,                                   ! Maximum Dry-Bulb Temperature {C}
  10.7,                                   ! Daily Dry-Bulb Temperature Range {deltaC}
  21.8,                                   ! Humidity Indicating Conditions at Maximum Dry-Bulb {BasedOnField A3}
  99904,                                  ! Barometric Pressure {Pa}
  4.6,                                    ! Wind Speed {m/s}
  240,                                    ! Wind Direction {deg}
  0,                                      ! Sky Clearness
  0,                                      ! Rain Indicator
  0,                                      ! Snow Indicator
  21,                                     ! Day of Month
  7,                                      ! Month
  SummerDesignDay,                        ! Day Type
  0,                                      ! Daylight Saving Time Indicator
  Wetbulb,                                ! Humidity Indicating Type
  ,                                       ! Humidity Indicating Day Schedule Name
  DefaultMultipliers,                     ! Dry-Bulb Temperature Range Modifier Type
  ,                                       ! Dry-Bulb Temperature Range Modifier Schedule Name
  ASHRAETau,                              ! Solar Model Indicator
  ,                                       ! Beam Solar Day Schedule Name
  ,                                       ! Diffuse Solar Day Schedule Name
  0.504,                                  ! ASHRAE Taub {dimensionless}
  1.885;                                  ! ASHRAE Taud {dimensionless}

OS:ComponentData,
  {035ed55a-cb4a-40cc-b7dd-e1863848e27e}, ! Handle
  Component Data 1,                       ! Name
  {81c25fd5-11fc-4ce3-acab-efd957a36382}, ! UUID
  {bf91d23b-eae4-428f-94f9-92ee511ca40f}, ! Version UUID
  1366310131,                             ! Creation Timestamp
  1366310131,                             ! Version Timestamp
  {0f90060b-bf1c-49cd-b525-2c744122ddff}; ! Name of Object 1

