
OS:Version,
  {5bd4f0be-e9f7-410e-877f-304e90712a46}, ! Handle
  0.9.3;                                  ! Version Identifier

OS:SizingPeriod:DesignDay,
  {3febc7a1-26ae-4291-95f6-112da389dcbe}, ! Handle
  Fort Wayne Ann Htg 99% Condns DB,       ! Name
  -15.7,                                  ! Maximum Dry-Bulb Temperature {C}
  0,                                      ! Daily Dry-Bulb Temperature Range {deltaC}
  -15.7,                                  ! Humidity Indicating Conditions at Maximum Dry-Bulb {BasedOnField A3}
  98334,                                  ! Barometric Pressure {Pa}
  4.6,                                    ! Wind Speed {m/s}
  260,                                    ! Wind Direction {deg}
  0,                                      ! Sky Clearness
  0,                                      ! Rain Indicator
  0,                                      ! Snow Indicator
  21,                                     ! Day of Month
  1,                                      ! Month
  WinterDesignDay,                        ! Day Type
  0,                                      ! Daylight Saving Time Indicator
  Wetbulb,                                ! Humidity Indicating Type
  ,                                       ! Humidity Indicating Day Schedule Name
  DefaultMultipliers,                     ! Dry-Bulb Temperature Range Modifier Type
  ,                                       ! Dry-Bulb Temperature Range Modifier Schedule Name
  ASHRAEClearSky;                         ! Solar Model Indicator

OS:ComponentData,
  {6517b2a0-cfa8-48c3-8080-8b7f01034d2e}, ! Handle
  Component Data 1,                       ! Name
  {1bb9cd69-c6e7-4121-a7f6-769e70c0208b}, ! UUID
  {d26bd41d-21c6-44f1-b0aa-8d8018cce583}, ! Version UUID
  1366307440,                             ! Creation Timestamp
  1366307440,                             ! Version Timestamp
  {3febc7a1-26ae-4291-95f6-112da389dcbe}; ! Name of Object 1

