
OS:Version,
  {4ff4b175-7e8b-4854-b9aa-0c12c09ff2ec}, ! Handle
  0.9.3;                                  ! Version Identifier

OS:SizingPeriod:DesignDay,
  {162d1c76-c40c-416f-85cc-677fa21ab721}, ! Handle
  Laredo Intl Ap  Ut Ann Clg .4% Condns DP=>MDB, ! Name
  28,                                     ! Maximum Dry-Bulb Temperature {C}
  11.6,                                   ! Daily Dry-Bulb Temperature Range {deltaC}
  24.4,                                   ! Humidity Indicating Conditions at Maximum Dry-Bulb {BasedOnField A3}
  99631,                                  ! Barometric Pressure {Pa}
  6,                                      ! Wind Speed {m/s}
  130,                                    ! Wind Direction {deg}
  0,                                      ! Sky Clearness
  0,                                      ! Rain Indicator
  0,                                      ! Snow Indicator
  21,                                     ! Day of Month
  8,                                      ! Month
  SummerDesignDay,                        ! Day Type
  0,                                      ! Daylight Saving Time Indicator
  Dewpoint,                               ! Humidity Indicating Type
  ,                                       ! Humidity Indicating Day Schedule Name
  DefaultMultipliers,                     ! Dry-Bulb Temperature Range Modifier Type
  ,                                       ! Dry-Bulb Temperature Range Modifier Schedule Name
  ASHRAETau,                              ! Solar Model Indicator
  ,                                       ! Beam Solar Day Schedule Name
  ,                                       ! Diffuse Solar Day Schedule Name
  0.469,                                  ! ASHRAE Taub {dimensionless}
  2.06;                                   ! ASHRAE Taud {dimensionless}

OS:ComponentData,
  {80333037-c1cf-4213-9e8c-4bcc3429a50d}, ! Handle
  Component Data 1,                       ! Name
  {e86a3798-bc93-46cb-9709-a29dedf4ad1c}, ! UUID
  {dab23dae-470d-4461-aa23-7e0b06343f9c}, ! Version UUID
  1366310784,                             ! Creation Timestamp
  1366310784,                             ! Version Timestamp
  {162d1c76-c40c-416f-85cc-677fa21ab721}; ! Name of Object 1

