
OS:Version,
  {bd7aa6e2-030e-4915-a562-9d39be4b3031}, ! Handle
  0.9.3;                                  ! Version Identifier

OS:SizingPeriod:DesignDay,
  {1dbfbf1b-fe34-45cf-957c-4e28f79eda6d}, ! Handle
  BALTIMORE Ann Hum_n 99% Condns DP=>MCDB, ! Name
  -5.5,                                   ! Maximum Dry-Bulb Temperature {C}
  0,                                      ! Daily Dry-Bulb Temperature Range {deltaC}
  -17,                                    ! Humidity Indicating Conditions at Maximum Dry-Bulb {BasedOnField A3}
  100762,                                 ! Barometric Pressure {Pa}
  3.9,                                    ! Wind Speed {m/s}
  290,                                    ! Wind Direction {deg}
  0,                                      ! Sky Clearness
  0,                                      ! Rain Indicator
  0,                                      ! Snow Indicator
  21,                                     ! Day of Month
  1,                                      ! Month
  WinterDesignDay,                        ! Day Type
  0,                                      ! Daylight Saving Time Indicator
  Dewpoint,                               ! Humidity Indicating Type
  ,                                       ! Humidity Indicating Day Schedule Name
  DefaultMultipliers,                     ! Dry-Bulb Temperature Range Modifier Type
  ,                                       ! Dry-Bulb Temperature Range Modifier Schedule Name
  ASHRAEClearSky;                         ! Solar Model Indicator

OS:ComponentData,
  {0090b7f0-d913-4823-9258-f1c96cd3def3}, ! Handle
  Component Data 1,                       ! Name
  {7a800e8a-043b-401c-b8c6-b921ac59b02f}, ! UUID
  {8059c0f4-6cde-4933-a4dd-514565e93d8b}, ! Version UUID
  1366307845,                             ! Creation Timestamp
  1366307845,                             ! Version Timestamp
  {1dbfbf1b-fe34-45cf-957c-4e28f79eda6d}; ! Name of Object 1

