
OS:Version,
  {7191e913-0caf-4a0d-99c1-c9b2d13fd7f0}, ! Handle
  0.9.3;                                  ! Version Identifier

OS:SizingPeriod:DesignDay,
  {31ab4415-c314-4f91-aaa9-98f01d44eb34}, ! Handle
  Dickinson Municipal Ap Ann Htg Wind 99.6% Condns WS=>MCDB, ! Name
  -8.6,                                   ! Maximum Dry-Bulb Temperature {C}
  0,                                      ! Daily Dry-Bulb Temperature Range {deltaC}
  -8.6,                                   ! Humidity Indicating Conditions at Maximum Dry-Bulb {BasedOnField A3}
  92210,                                  ! Barometric Pressure {Pa}
  14.6,                                   ! Wind Speed {m/s}
  290,                                    ! Wind Direction {deg}
  0,                                      ! Sky Clearness
  0,                                      ! Rain Indicator
  0,                                      ! Snow Indicator
  21,                                     ! Day of Month
  1,                                      ! Month
  WinterDesignDay,                        ! Day Type
  0,                                      ! Daylight Saving Time Indicator
  Wetbulb,                                ! Humidity Indicating Type
  ,                                       ! Humidity Indicating Day Schedule Name
  DefaultMultipliers,                     ! Dry-Bulb Temperature Range Modifier Type
  ,                                       ! Dry-Bulb Temperature Range Modifier Schedule Name
  ASHRAEClearSky;                         ! Solar Model Indicator

OS:ComponentData,
  {f72d541a-62e7-4422-88e6-32bf65c75f10}, ! Handle
  Component Data 1,                       ! Name
  {3b467e6d-3dfb-435f-a054-9d5de8ec0992}, ! UUID
  {8aa89179-7d0b-4ede-b1aa-04ae09f705c0}, ! Version UUID
  1366309015,                             ! Creation Timestamp
  1366309015,                             ! Version Timestamp
  {31ab4415-c314-4f91-aaa9-98f01d44eb34}; ! Name of Object 1

