
OS:Version,
  {c4c7f539-4d89-4943-bbb6-3ace35fa388b}, ! Handle
  0.9.3;                                  ! Version Identifier

OS:SizingPeriod:DesignDay,
  {1caaf5e2-388e-4677-a93a-d984614978e7}, ! Handle
  King Salmon Arpt Ann Clg 1% Condns DP=>MDB, ! Name
  16,                                     ! Maximum Dry-Bulb Temperature {C}
  8.6,                                    ! Daily Dry-Bulb Temperature Range {deltaC}
  12.8,                                   ! Humidity Indicating Conditions at Maximum Dry-Bulb {BasedOnField A3}
  101145,                                 ! Barometric Pressure {Pa}
  4.8,                                    ! Wind Speed {m/s}
  270,                                    ! Wind Direction {deg}
  0,                                      ! Sky Clearness
  0,                                      ! Rain Indicator
  0,                                      ! Snow Indicator
  21,                                     ! Day of Month
  7,                                      ! Month
  SummerDesignDay,                        ! Day Type
  0,                                      ! Daylight Saving Time Indicator
  Dewpoint,                               ! Humidity Indicating Type
  ,                                       ! Humidity Indicating Day Schedule Name
  DefaultMultipliers,                     ! Dry-Bulb Temperature Range Modifier Type
  ,                                       ! Dry-Bulb Temperature Range Modifier Schedule Name
  ASHRAETau,                              ! Solar Model Indicator
  ,                                       ! Beam Solar Day Schedule Name
  ,                                       ! Diffuse Solar Day Schedule Name
  0.384,                                  ! ASHRAE Taub {dimensionless}
  2.227;                                  ! ASHRAE Taud {dimensionless}

OS:ComponentData,
  {df62b94a-464b-4ee2-b2f9-5949299ce546}, ! Handle
  Component Data 1,                       ! Name
  {c2eedd53-57de-4128-8393-20b2fdb5d81c}, ! UUID
  {95805db7-df75-4067-b2c7-a24ba7819331}, ! Version UUID
  1366305367,                             ! Creation Timestamp
  1366305367,                             ! Version Timestamp
  {1caaf5e2-388e-4677-a93a-d984614978e7}; ! Name of Object 1

