
OS:Version,
  {89f65dcf-cfc6-420c-8da7-90b87f57e1d5}, ! Handle
  0.9.3;                                  ! Version Identifier

OS:SizingPeriod:DesignDay,
  {a4acf734-3a99-460f-a2be-b8ffa2cb9b7f}, ! Handle
  Cape Hatteras Ann Clg .4% Condns DP=>MDB, ! Name
  28.2,                                   ! Maximum Dry-Bulb Temperature {C}
  4.4,                                    ! Daily Dry-Bulb Temperature Range {deltaC}
  26.4,                                   ! Humidity Indicating Conditions at Maximum Dry-Bulb {BasedOnField A3}
  101289,                                 ! Barometric Pressure {Pa}
  4.4,                                    ! Wind Speed {m/s}
  0,                                      ! Wind Direction {deg}
  0,                                      ! Sky Clearness
  0,                                      ! Rain Indicator
  0,                                      ! Snow Indicator
  21,                                     ! Day of Month
  7,                                      ! Month
  SummerDesignDay,                        ! Day Type
  0,                                      ! Daylight Saving Time Indicator
  Dewpoint,                               ! Humidity Indicating Type
  ,                                       ! Humidity Indicating Day Schedule Name
  DefaultMultipliers,                     ! Dry-Bulb Temperature Range Modifier Type
  ,                                       ! Dry-Bulb Temperature Range Modifier Schedule Name
  ASHRAETau,                              ! Solar Model Indicator
  ,                                       ! Beam Solar Day Schedule Name
  ,                                       ! Diffuse Solar Day Schedule Name
  0.57,                                   ! ASHRAE Taub {dimensionless}
  1.801;                                  ! ASHRAE Taud {dimensionless}

OS:ComponentData,
  {0bd95b75-d81c-4194-afbf-7e69d81b718a}, ! Handle
  Component Data 1,                       ! Name
  {d75374fe-352d-41aa-8471-d326ab400803}, ! UUID
  {66ca8dde-8904-438f-865b-19ecfe4ccfb4}, ! Version UUID
  1366308873,                             ! Creation Timestamp
  1366308873,                             ! Version Timestamp
  {a4acf734-3a99-460f-a2be-b8ffa2cb9b7f}; ! Name of Object 1

