
OS:Version,
  {006ae57e-18d5-462a-8cb3-4a8ac4530598}, ! Handle
  0.9.3;                                  ! Version Identifier

OS:SizingPeriod:DesignDay,
  {bdad641d-668a-4ca9-b82b-1199541bda88}, ! Handle
  Cherry Point Mcas Ann Htg 99.6% Condns DB, ! Name
  -4.7,                                   ! Maximum Dry-Bulb Temperature {C}
  0,                                      ! Daily Dry-Bulb Temperature Range {deltaC}
  -4.7,                                   ! Humidity Indicating Conditions at Maximum Dry-Bulb {BasedOnField A3}
  101193,                                 ! Barometric Pressure {Pa}
  2.4,                                    ! Wind Speed {m/s}
  10,                                     ! Wind Direction {deg}
  0,                                      ! Sky Clearness
  0,                                      ! Rain Indicator
  0,                                      ! Snow Indicator
  21,                                     ! Day of Month
  1,                                      ! Month
  WinterDesignDay,                        ! Day Type
  0,                                      ! Daylight Saving Time Indicator
  Wetbulb,                                ! Humidity Indicating Type
  ,                                       ! Humidity Indicating Day Schedule Name
  DefaultMultipliers,                     ! Dry-Bulb Temperature Range Modifier Type
  ,                                       ! Dry-Bulb Temperature Range Modifier Schedule Name
  ASHRAEClearSky;                         ! Solar Model Indicator

OS:ComponentData,
  {221e4c38-26e0-4f08-90b0-a6b934f00b56}, ! Handle
  Component Data 1,                       ! Name
  {49f06743-d706-4a13-8bf2-08129db9e975}, ! UUID
  {e517d948-976a-43c1-8f55-8f89b9942705}, ! Version UUID
  1366308900,                             ! Creation Timestamp
  1366308900,                             ! Version Timestamp
  {bdad641d-668a-4ca9-b82b-1199541bda88}; ! Name of Object 1

