
OS:Version,
  {a832d70e-13a6-4cd8-949f-3ede33204b20}, ! Handle
  0.9.3;                                  ! Version Identifier

OS:SizingPeriod:DesignDay,
  {539f0be0-f883-4802-a205-ff09ddd97ed8}, ! Handle
  Fort Worth Nas Ann Htg Wind 99.6% Condns WS=>MCDB, ! Name
  5.8,                                    ! Maximum Dry-Bulb Temperature {C}
  0,                                      ! Daily Dry-Bulb Temperature Range {deltaC}
  5.8,                                    ! Humidity Indicating Conditions at Maximum Dry-Bulb {BasedOnField A3}
  99122,                                  ! Barometric Pressure {Pa}
  11.8,                                   ! Wind Speed {m/s}
  10,                                     ! Wind Direction {deg}
  0,                                      ! Sky Clearness
  0,                                      ! Rain Indicator
  0,                                      ! Snow Indicator
  21,                                     ! Day of Month
  1,                                      ! Month
  WinterDesignDay,                        ! Day Type
  0,                                      ! Daylight Saving Time Indicator
  Wetbulb,                                ! Humidity Indicating Type
  ,                                       ! Humidity Indicating Day Schedule Name
  DefaultMultipliers,                     ! Dry-Bulb Temperature Range Modifier Type
  ,                                       ! Dry-Bulb Temperature Range Modifier Schedule Name
  ASHRAEClearSky;                         ! Solar Model Indicator

