
OS:Version,
  {12c9637e-a8cb-4782-a295-85e28d6e5f7d}, ! Handle
  0.9.3;                                  ! Version Identifier

OS:SizingPeriod:DesignDay,
  {d974dd09-f413-4886-bfa3-f377a0b891b2}, ! Handle
  Fort Worth Nas Ann Htg Wind 99.6% Condns WS=>MCDB, ! Name
  5.8,                                    ! Maximum Dry-Bulb Temperature {C}
  0,                                      ! Daily Dry-Bulb Temperature Range {deltaC}
  5.8,                                    ! Humidity Indicating Conditions at Maximum Dry-Bulb {BasedOnField A3}
  99122,                                  ! Barometric Pressure {Pa}
  11.8,                                   ! Wind Speed {m/s}
  10,                                     ! Wind Direction {deg}
  0,                                      ! Sky Clearness
  0,                                      ! Rain Indicator
  0,                                      ! Snow Indicator
  21,                                     ! Day of Month
  1,                                      ! Month
  WinterDesignDay,                        ! Day Type
  0,                                      ! Daylight Saving Time Indicator
  Wetbulb,                                ! Humidity Indicating Type
  ,                                       ! Humidity Indicating Day Schedule Name
  DefaultMultipliers,                     ! Dry-Bulb Temperature Range Modifier Type
  ,                                       ! Dry-Bulb Temperature Range Modifier Schedule Name
  ASHRAEClearSky;                         ! Solar Model Indicator

OS:ComponentData,
  {6032084b-a200-46d0-b1e0-d0f019c7c325}, ! Handle
  Component Data 1,                       ! Name
  {d85e158f-c67d-4c9f-a4fa-d60b44a67270}, ! UUID
  {77299a74-4a4c-448b-a48a-5fe621e5460b}, ! Version UUID
  1366310713,                             ! Creation Timestamp
  1366310713,                             ! Version Timestamp
  {d974dd09-f413-4886-bfa3-f377a0b891b2}; ! Name of Object 1

