
OS:Version,
  {3e773203-6b89-406b-8f07-6c33217abdb2}, ! Handle
  0.9.3;                                  ! Version Identifier

OS:SizingPeriod:DesignDay,
  {d7019ff5-0c13-466e-8b1b-a34574f7139c}, ! Handle
  Kansas City Downtown Ap Ann Clg 1% Condns DB=>MWB, ! Name
  34.4,                                   ! Maximum Dry-Bulb Temperature {C}
  9.5,                                    ! Daily Dry-Bulb Temperature Range {deltaC}
  24.3,                                   ! Humidity Indicating Conditions at Maximum Dry-Bulb {BasedOnField A3}
  98639,                                  ! Barometric Pressure {Pa}
  5.4,                                    ! Wind Speed {m/s}
  210,                                    ! Wind Direction {deg}
  0,                                      ! Sky Clearness
  0,                                      ! Rain Indicator
  0,                                      ! Snow Indicator
  21,                                     ! Day of Month
  7,                                      ! Month
  SummerDesignDay,                        ! Day Type
  0,                                      ! Daylight Saving Time Indicator
  Wetbulb,                                ! Humidity Indicating Type
  ,                                       ! Humidity Indicating Day Schedule Name
  DefaultMultipliers,                     ! Dry-Bulb Temperature Range Modifier Type
  ,                                       ! Dry-Bulb Temperature Range Modifier Schedule Name
  ASHRAETau,                              ! Solar Model Indicator
  ,                                       ! Beam Solar Day Schedule Name
  ,                                       ! Diffuse Solar Day Schedule Name
  0.445,                                  ! ASHRAE Taub {dimensionless}
  2.122;                                  ! ASHRAE Taud {dimensionless}

OS:ComponentData,
  {d53d1f52-f8ab-4abf-8901-ab691391f3ba}, ! Handle
  Component Data 1,                       ! Name
  {29ee962e-a5d3-4ae7-9af7-d7c64e6a8f84}, ! UUID
  {2f5963c1-39ca-42a9-af58-b5c80aaec6f1}, ! Version UUID
  1366308526,                             ! Creation Timestamp
  1366308526,                             ! Version Timestamp
  {d7019ff5-0c13-466e-8b1b-a34574f7139c}; ! Name of Object 1

