
OS:Version,
  {2aee5fd7-75c7-40c0-afa1-b66e2fd1ff47}, ! Handle
  0.9.3;                                  ! Version Identifier

OS:SizingPeriod:DesignDay,
  {7eddd551-08be-471a-bda0-304fb7bb3248}, ! Handle
  Chicago/Midway Ann Clg 1% Condns DB=>MWB, ! Name
  32,                                     ! Maximum Dry-Bulb Temperature {C}
  8.8,                                    ! Daily Dry-Bulb Temperature Range {deltaC}
  23,                                     ! Humidity Indicating Conditions at Maximum Dry-Bulb {BasedOnField A3}
  99099,                                  ! Barometric Pressure {Pa}
  5.6,                                    ! Wind Speed {m/s}
  220,                                    ! Wind Direction {deg}
  0,                                      ! Sky Clearness
  0,                                      ! Rain Indicator
  0,                                      ! Snow Indicator
  21,                                     ! Day of Month
  7,                                      ! Month
  SummerDesignDay,                        ! Day Type
  0,                                      ! Daylight Saving Time Indicator
  Wetbulb,                                ! Humidity Indicating Type
  ,                                       ! Humidity Indicating Day Schedule Name
  DefaultMultipliers,                     ! Dry-Bulb Temperature Range Modifier Type
  ,                                       ! Dry-Bulb Temperature Range Modifier Schedule Name
  ASHRAETau,                              ! Solar Model Indicator
  ,                                       ! Beam Solar Day Schedule Name
  ,                                       ! Diffuse Solar Day Schedule Name
  0.457,                                  ! ASHRAE Taub {dimensionless}
  2.043;                                  ! ASHRAE Taud {dimensionless}

OS:ComponentData,
  {12c19d61-eba2-4db0-88d1-dd4fc618aeda}, ! Handle
  Component Data 1,                       ! Name
  {210af7e4-2c7b-4bdc-97f8-799c1b566565}, ! UUID
  {8a1fd2d7-0cef-413d-a657-85cc7de49e80}, ! Version UUID
  1366307339,                             ! Creation Timestamp
  1366307339,                             ! Version Timestamp
  {7eddd551-08be-471a-bda0-304fb7bb3248}; ! Name of Object 1

