
OS:Version,
  {fd075768-789e-4faa-aab3-fca09e810f20}, ! Handle
  0.9.3;                                  ! Version Identifier

OS:SizingPeriod:DesignDay,
  {ec6a236a-de7f-496f-ac22-9f3c3effa16a}, ! Handle
  Huntsville Intl Jones Field Ann Clg 1% Condns WB=>MDB, ! Name
  30.7,                                   ! Maximum Dry-Bulb Temperature {C}
  10.4,                                   ! Daily Dry-Bulb Temperature Range {deltaC}
  25.2,                                   ! Humidity Indicating Conditions at Maximum Dry-Bulb {BasedOnField A3}
  99063,                                  ! Barometric Pressure {Pa}
  3.6,                                    ! Wind Speed {m/s}
  270,                                    ! Wind Direction {deg}
  0,                                      ! Sky Clearness
  0,                                      ! Rain Indicator
  0,                                      ! Snow Indicator
  21,                                     ! Day of Month
  7,                                      ! Month
  SummerDesignDay,                        ! Day Type
  0,                                      ! Daylight Saving Time Indicator
  Wetbulb,                                ! Humidity Indicating Type
  ,                                       ! Humidity Indicating Day Schedule Name
  DefaultMultipliers,                     ! Dry-Bulb Temperature Range Modifier Type
  ,                                       ! Dry-Bulb Temperature Range Modifier Schedule Name
  ASHRAETau,                              ! Solar Model Indicator
  ,                                       ! Beam Solar Day Schedule Name
  ,                                       ! Diffuse Solar Day Schedule Name
  0.552,                                  ! ASHRAE Taub {dimensionless}
  1.785;                                  ! ASHRAE Taud {dimensionless}

OS:ComponentData,
  {0159cc03-24cf-4c8c-8e7a-354adc25d128}, ! Handle
  Component Data 1,                       ! Name
  {ee072d9b-0e90-4642-8efd-031d0fbb2b1b}, ! UUID
  {b64edd48-6b02-45df-bdb5-abb62ffd5c3e}, ! Version UUID
  1366305671,                             ! Creation Timestamp
  1366305671,                             ! Version Timestamp
  {ec6a236a-de7f-496f-ac22-9f3c3effa16a}; ! Name of Object 1

