
OS:Version,
  {13ba5f3b-e8b1-4b52-9293-59ce37ab3a3c}, ! Handle
  0.9.3;                                  ! Version Identifier

OS:SizingPeriod:DesignDay,
  {74716195-276e-42c8-9c0a-9ee029fa3603}, ! Handle
  Dubois Faa Ap Ann Clg .4% Condns WB=>MDB, ! Name
  27.2,                                   ! Maximum Dry-Bulb Temperature {C}
  10.4,                                   ! Daily Dry-Bulb Temperature Range {deltaC}
  22.5,                                   ! Humidity Indicating Conditions at Maximum Dry-Bulb {BasedOnField A3}
  94856,                                  ! Barometric Pressure {Pa}
  4.4,                                    ! Wind Speed {m/s}
  250,                                    ! Wind Direction {deg}
  0,                                      ! Sky Clearness
  0,                                      ! Rain Indicator
  0,                                      ! Snow Indicator
  21,                                     ! Day of Month
  7,                                      ! Month
  SummerDesignDay,                        ! Day Type
  0,                                      ! Daylight Saving Time Indicator
  Wetbulb,                                ! Humidity Indicating Type
  ,                                       ! Humidity Indicating Day Schedule Name
  DefaultMultipliers,                     ! Dry-Bulb Temperature Range Modifier Type
  ,                                       ! Dry-Bulb Temperature Range Modifier Schedule Name
  ASHRAETau,                              ! Solar Model Indicator
  ,                                       ! Beam Solar Day Schedule Name
  ,                                       ! Diffuse Solar Day Schedule Name
  0.441,                                  ! ASHRAE Taub {dimensionless}
  2.051;                                  ! ASHRAE Taud {dimensionless}

OS:ComponentData,
  {6ffe3a64-3893-463a-aa70-b2575739b513}, ! Handle
  Component Data 1,                       ! Name
  {d216e9f9-1a1c-4b15-8980-484df71f667f}, ! UUID
  {6f21117f-fe73-40a6-af0c-635b2b767fcf}, ! Version UUID
  1366310159,                             ! Creation Timestamp
  1366310159,                             ! Version Timestamp
  {74716195-276e-42c8-9c0a-9ee029fa3603}; ! Name of Object 1

