
OS:Version,
  {e33dbd28-3f23-4043-b544-0b6b9cdf3a6b}, ! Handle
  0.9.3;                                  ! Version Identifier

OS:SizingPeriod:DesignDay,
  {99ac9618-5aff-49c7-b499-1760a5188bbb}, ! Handle
  Iliamna Arpt Ann Hum_n 99% Condns DP=>MCDB, ! Name
  -25.1,                                  ! Maximum Dry-Bulb Temperature {C}
  0,                                      ! Daily Dry-Bulb Temperature Range {deltaC}
  -32.1,                                  ! Humidity Indicating Conditions at Maximum Dry-Bulb {BasedOnField A3}
  100642,                                 ! Barometric Pressure {Pa}
  4.5,                                    ! Wind Speed {m/s}
  0,                                      ! Wind Direction {deg}
  0,                                      ! Sky Clearness
  0,                                      ! Rain Indicator
  0,                                      ! Snow Indicator
  21,                                     ! Day of Month
  1,                                      ! Month
  WinterDesignDay,                        ! Day Type
  0,                                      ! Daylight Saving Time Indicator
  Dewpoint,                               ! Humidity Indicating Type
  ,                                       ! Humidity Indicating Day Schedule Name
  DefaultMultipliers,                     ! Dry-Bulb Temperature Range Modifier Type
  ,                                       ! Dry-Bulb Temperature Range Modifier Schedule Name
  ASHRAEClearSky;                         ! Solar Model Indicator

OS:ComponentData,
  {97479746-f851-41a4-8914-f7d44ccee45a}, ! Handle
  Component Data 1,                       ! Name
  {1b6072dd-6c3c-4846-b031-31bccf53ba78}, ! UUID
  {87b415da-3cc4-41af-9b49-131fc99c208a}, ! Version UUID
  1366305325,                             ! Creation Timestamp
  1366305325,                             ! Version Timestamp
  {99ac9618-5aff-49c7-b499-1760a5188bbb}; ! Name of Object 1

