
OS:Version,
  {802e3c9c-ab12-4810-88d7-87c1d8c0496e}, ! Handle
  0.9.3;                                  ! Version Identifier

OS:SizingPeriod:DesignDay,
  {5e85cb11-9bfb-4ffc-8c8d-0de10ad2eaf8}, ! Handle
  Lewistown Ann Htg 99% Condns DB,        ! Name
  -23.3,                                  ! Maximum Dry-Bulb Temperature {C}
  0,                                      ! Daily Dry-Bulb Temperature Range {deltaC}
  -23.3,                                  ! Humidity Indicating Conditions at Maximum Dry-Bulb {BasedOnField A3}
  86970,                                  ! Barometric Pressure {Pa}
  3,                                      ! Wind Speed {m/s}
  120,                                    ! Wind Direction {deg}
  0,                                      ! Sky Clearness
  0,                                      ! Rain Indicator
  0,                                      ! Snow Indicator
  21,                                     ! Day of Month
  12,                                     ! Month
  WinterDesignDay,                        ! Day Type
  0,                                      ! Daylight Saving Time Indicator
  Wetbulb,                                ! Humidity Indicating Type
  ,                                       ! Humidity Indicating Day Schedule Name
  DefaultMultipliers,                     ! Dry-Bulb Temperature Range Modifier Type
  ,                                       ! Dry-Bulb Temperature Range Modifier Schedule Name
  ASHRAEClearSky;                         ! Solar Model Indicator

OS:ComponentData,
  {08dffedf-8650-4874-bf94-9be4f5699c10}, ! Handle
  Component Data 1,                       ! Name
  {e00475da-7d6e-4ae8-aa69-b2aca85c98e6}, ! UUID
  {668ab2dd-2f8e-4488-95c5-b8739edc7f1e}, ! Version UUID
  1366308815,                             ! Creation Timestamp
  1366308815,                             ! Version Timestamp
  {5e85cb11-9bfb-4ffc-8c8d-0de10ad2eaf8}; ! Name of Object 1

