
OS:Version,
  {00ce6dab-e7e2-42a3-aabf-6b362f60a203}, ! Handle
  0.9.3;                                  ! Version Identifier

OS:SizingPeriod:DesignDay,
  {4a01b6ac-70e3-49f2-86b6-9ea9391e0b65}, ! Handle
  Dillant Hopkins Ann Htg Wind 99% Condns WS=>MCDB, ! Name
  -5.7,                                   ! Maximum Dry-Bulb Temperature {C}
  0,                                      ! Daily Dry-Bulb Temperature Range {deltaC}
  -5.7,                                   ! Humidity Indicating Conditions at Maximum Dry-Bulb {BasedOnField A3}
  99500,                                  ! Barometric Pressure {Pa}
  8.2,                                    ! Wind Speed {m/s}
  190,                                    ! Wind Direction {deg}
  0,                                      ! Sky Clearness
  0,                                      ! Rain Indicator
  0,                                      ! Snow Indicator
  21,                                     ! Day of Month
  1,                                      ! Month
  WinterDesignDay,                        ! Day Type
  0,                                      ! Daylight Saving Time Indicator
  Wetbulb,                                ! Humidity Indicating Type
  ,                                       ! Humidity Indicating Day Schedule Name
  DefaultMultipliers,                     ! Dry-Bulb Temperature Range Modifier Type
  ,                                       ! Dry-Bulb Temperature Range Modifier Schedule Name
  ASHRAEClearSky;                         ! Solar Model Indicator

OS:ComponentData,
  {37dfde1b-30a3-42f8-913c-511dc7705e91}, ! Handle
  Component Data 1,                       ! Name
  {6a2da209-8967-4e00-ad1e-1e90f6d1432d}, ! UUID
  {77a118f6-042f-40bc-9dfd-eb7f25c0c874}, ! Version UUID
  1366309235,                             ! Creation Timestamp
  1366309235,                             ! Version Timestamp
  {4a01b6ac-70e3-49f2-86b6-9ea9391e0b65}; ! Name of Object 1

