
OS:Version,
  {4ec82a7c-01a3-4f87-a28a-d75d8fe7c91d}, ! Handle
  0.9.3;                                  ! Version Identifier

OS:SizingPeriod:DesignDay,
  {48442b02-1cd1-4bed-a0d2-f1332e113974}, ! Handle
  Little Rock Adams Field Ann Htg 99.6% Condns DB, ! Name
  -8.2,                                   ! Maximum Dry-Bulb Temperature {C}
  0,                                      ! Daily Dry-Bulb Temperature Range {deltaC}
  -8.2,                                   ! Humidity Indicating Conditions at Maximum Dry-Bulb {BasedOnField A3}
  100391,                                 ! Barometric Pressure {Pa}
  3.8,                                    ! Wind Speed {m/s}
  350,                                    ! Wind Direction {deg}
  0,                                      ! Sky Clearness
  0,                                      ! Rain Indicator
  0,                                      ! Snow Indicator
  21,                                     ! Day of Month
  1,                                      ! Month
  WinterDesignDay,                        ! Day Type
  0,                                      ! Daylight Saving Time Indicator
  Wetbulb,                                ! Humidity Indicating Type
  ,                                       ! Humidity Indicating Day Schedule Name
  DefaultMultipliers,                     ! Dry-Bulb Temperature Range Modifier Type
  ,                                       ! Dry-Bulb Temperature Range Modifier Schedule Name
  ASHRAEClearSky;                         ! Solar Model Indicator

OS:ComponentData,
  {fccf7a92-a65a-487d-912e-461e1440fe9f}, ! Handle
  Component Data 1,                       ! Name
  {8a5789c3-7941-4191-ba7c-6bc293dfc78d}, ! UUID
  {2ffcecb0-eac7-48c1-a0a9-1e6fa0c310e3}, ! Version UUID
  1366306228,                             ! Creation Timestamp
  1366306228,                             ! Version Timestamp
  {48442b02-1cd1-4bed-a0d2-f1332e113974}; ! Name of Object 1

