
OS:Version,
  {2389b7d5-26c2-4336-8bab-12a9575fd7f0}, ! Handle
  0.9.3;                                  ! Version Identifier

OS:SizingPeriod:DesignDay,
  {b7b7b8b1-bab2-4c0e-bcfe-b6a9086cbd0a}, ! Handle
  Clovis Muni   Awos Ann Hum_n 99.6% Condns DP=>MCDB, ! Name
  -3.7,                                   ! Maximum Dry-Bulb Temperature {C}
  0,                                      ! Daily Dry-Bulb Temperature Range {deltaC}
  -18,                                    ! Humidity Indicating Conditions at Maximum Dry-Bulb {BasedOnField A3}
  86821,                                  ! Barometric Pressure {Pa}
  4.3,                                    ! Wind Speed {m/s}
  10,                                     ! Wind Direction {deg}
  0,                                      ! Sky Clearness
  0,                                      ! Rain Indicator
  0,                                      ! Snow Indicator
  21,                                     ! Day of Month
  12,                                     ! Month
  WinterDesignDay,                        ! Day Type
  0,                                      ! Daylight Saving Time Indicator
  Dewpoint,                               ! Humidity Indicating Type
  ,                                       ! Humidity Indicating Day Schedule Name
  DefaultMultipliers,                     ! Dry-Bulb Temperature Range Modifier Type
  ,                                       ! Dry-Bulb Temperature Range Modifier Schedule Name
  ASHRAEClearSky;                         ! Solar Model Indicator

OS:ComponentData,
  {7ca6175d-c70b-447f-bd1c-74107ad65b33}, ! Handle
  Component Data 1,                       ! Name
  {91ac8b59-c422-4cbf-9022-539e1cfd12b9}, ! UUID
  {5c64cf67-3538-473e-9a67-f879f1947f4f}, ! Version UUID
  1366309395,                             ! Creation Timestamp
  1366309395,                             ! Version Timestamp
  {b7b7b8b1-bab2-4c0e-bcfe-b6a9086cbd0a}; ! Name of Object 1

