
OS:Version,
  {160acfb2-fb62-4109-bf0b-f4553ce27d71}, ! Handle
  0.9.3;                                  ! Version Identifier

OS:SizingPeriod:DesignDay,
  {90795b23-db8e-4cc5-8ff4-920df9ef43da}, ! Handle
  Albert Lea  Awos Ann Clg 2% Condns DB=>MWB, ! Name
  28.4,                                   ! Maximum Dry-Bulb Temperature {C}
  9.9,                                    ! Daily Dry-Bulb Temperature Range {deltaC}
  21.6,                                   ! Humidity Indicating Conditions at Maximum Dry-Bulb {BasedOnField A3}
  96808,                                  ! Barometric Pressure {Pa}
  4,                                      ! Wind Speed {m/s}
  180,                                    ! Wind Direction {deg}
  0,                                      ! Sky Clearness
  0,                                      ! Rain Indicator
  0,                                      ! Snow Indicator
  21,                                     ! Day of Month
  7,                                      ! Month
  SummerDesignDay,                        ! Day Type
  0,                                      ! Daylight Saving Time Indicator
  Wetbulb,                                ! Humidity Indicating Type
  ,                                       ! Humidity Indicating Day Schedule Name
  DefaultMultipliers,                     ! Dry-Bulb Temperature Range Modifier Type
  ,                                       ! Dry-Bulb Temperature Range Modifier Schedule Name
  ASHRAETau,                              ! Solar Model Indicator
  ,                                       ! Beam Solar Day Schedule Name
  ,                                       ! Diffuse Solar Day Schedule Name
  0.407,                                  ! ASHRAE Taub {dimensionless}
  2.214;                                  ! ASHRAE Taud {dimensionless}

OS:ComponentData,
  {51428954-bd3c-44f4-be39-b146fa11679c}, ! Handle
  Component Data 1,                       ! Name
  {b2866abc-6fbf-48db-a0f2-331b169252be}, ! UUID
  {3e1ed99e-da78-4cd0-958a-8a1b99e254e4}, ! Version UUID
  1366308140,                             ! Creation Timestamp
  1366308140,                             ! Version Timestamp
  {90795b23-db8e-4cc5-8ff4-920df9ef43da}; ! Name of Object 1

