
OS:Version,
  {358f0355-a348-4c16-9618-f40178cf61c4}, ! Handle
  0.9.3;                                  ! Version Identifier

OS:SizingPeriod:DesignDay,
  {77dc902e-ea3f-40c5-9719-8218145b96d5}, ! Handle
  Lewistown Municipal Arpt Ann Clg 2% Condns WB=>MDB, ! Name
  26,                                     ! Maximum Dry-Bulb Temperature {C}
  15.7,                                   ! Daily Dry-Bulb Temperature Range {deltaC}
  16,                                     ! Humidity Indicating Conditions at Maximum Dry-Bulb {BasedOnField A3}
  87044,                                  ! Barometric Pressure {Pa}
  4.3,                                    ! Wind Speed {m/s}
  0,                                      ! Wind Direction {deg}
  0,                                      ! Sky Clearness
  0,                                      ! Rain Indicator
  0,                                      ! Snow Indicator
  21,                                     ! Day of Month
  7,                                      ! Month
  SummerDesignDay,                        ! Day Type
  0,                                      ! Daylight Saving Time Indicator
  Wetbulb,                                ! Humidity Indicating Type
  ,                                       ! Humidity Indicating Day Schedule Name
  DefaultMultipliers,                     ! Dry-Bulb Temperature Range Modifier Type
  ,                                       ! Dry-Bulb Temperature Range Modifier Schedule Name
  ASHRAETau,                              ! Solar Model Indicator
  ,                                       ! Beam Solar Day Schedule Name
  ,                                       ! Diffuse Solar Day Schedule Name
  0.382,                                  ! ASHRAE Taub {dimensionless}
  2.178;                                  ! ASHRAE Taud {dimensionless}

OS:ComponentData,
  {6e302c1d-49ef-4d65-a5e1-66a25ce7a007}, ! Handle
  Component Data 1,                       ! Name
  {f8fde7d9-ed51-44c0-8252-7a868fc07627}, ! UUID
  {5dc8f64b-7de1-416d-b1d9-116bd856ff14}, ! Version UUID
  1366308821,                             ! Creation Timestamp
  1366308821,                             ! Version Timestamp
  {77dc902e-ea3f-40c5-9719-8218145b96d5}; ! Name of Object 1

