
OS:Version,
  {e888e79a-97fc-4e27-b1e7-218d62af4369}, ! Handle
  0.9.3;                                  ! Version Identifier

OS:SizingPeriod:DesignDay,
  {de34bd36-fc81-4c63-8f82-664a4526d86a}, ! Handle
  Benton Harbor Ross Ann Clg .4% Condns Enth=>MDB, ! Name
  29.7,                                   ! Maximum Dry-Bulb Temperature {C}
  10.7,                                   ! Daily Dry-Bulb Temperature Range {deltaC}
  77500,                                  ! Humidity Indicating Conditions at Maximum Dry-Bulb {BasedOnField A3}
  98992,                                  ! Barometric Pressure {Pa}
  4.9,                                    ! Wind Speed {m/s}
  240,                                    ! Wind Direction {deg}
  0,                                      ! Sky Clearness
  0,                                      ! Rain Indicator
  0,                                      ! Snow Indicator
  21,                                     ! Day of Month
  7,                                      ! Month
  SummerDesignDay,                        ! Day Type
  0,                                      ! Daylight Saving Time Indicator
  Enthalpy,                               ! Humidity Indicating Type
  ,                                       ! Humidity Indicating Day Schedule Name
  DefaultMultipliers,                     ! Dry-Bulb Temperature Range Modifier Type
  ,                                       ! Dry-Bulb Temperature Range Modifier Schedule Name
  ASHRAETau,                              ! Solar Model Indicator
  ,                                       ! Beam Solar Day Schedule Name
  ,                                       ! Diffuse Solar Day Schedule Name
  0.442,                                  ! ASHRAE Taub {dimensionless}
  2.111;                                  ! ASHRAE Taud {dimensionless}

