
OS:Version,
  {91c552ad-6de2-4d91-af3f-9a1df249e173}, ! Handle
  0.9.3;                                  ! Version Identifier

OS:SizingPeriod:DesignDay,
  {5f77035a-8677-4818-920f-c926894beeb1}, ! Handle
  ABILENE Ann Clg 2% Condns DB=>MWB,      ! Name
  35.1,                                   ! Maximum Dry-Bulb Temperature {C}
  11.6,                                   ! Daily Dry-Bulb Temperature Range {deltaC}
  21.5,                                   ! Humidity Indicating Conditions at Maximum Dry-Bulb {BasedOnField A3}
  95072,                                  ! Barometric Pressure {Pa}
  5.3,                                    ! Wind Speed {m/s}
  160,                                    ! Wind Direction {deg}
  0,                                      ! Sky Clearness
  0,                                      ! Rain Indicator
  0,                                      ! Snow Indicator
  21,                                     ! Day of Month
  7,                                      ! Month
  SummerDesignDay,                        ! Day Type
  0,                                      ! Daylight Saving Time Indicator
  Wetbulb,                                ! Humidity Indicating Type
  ,                                       ! Humidity Indicating Day Schedule Name
  DefaultMultipliers,                     ! Dry-Bulb Temperature Range Modifier Type
  ,                                       ! Dry-Bulb Temperature Range Modifier Schedule Name
  ASHRAETau,                              ! Solar Model Indicator
  ,                                       ! Beam Solar Day Schedule Name
  ,                                       ! Diffuse Solar Day Schedule Name
  0.426,                                  ! ASHRAE Taub {dimensionless}
  2.172;                                  ! ASHRAE Taud {dimensionless}

OS:ComponentData,
  {a145450e-0571-40b5-9914-05fb63b8ae97}, ! Handle
  Component Data 1,                       ! Name
  {cdcb4a92-12cf-4e16-a2a6-b009360686a8}, ! UUID
  {7edf707a-1987-4b87-93d7-f3196fc6a604}, ! Version UUID
  1366310551,                             ! Creation Timestamp
  1366310551,                             ! Version Timestamp
  {5f77035a-8677-4818-920f-c926894beeb1}; ! Name of Object 1

