
OS:Version,
  {d60de842-3245-4e85-adab-e960f3137185}, ! Handle
  0.9.3;                                  ! Version Identifier

OS:SizingPeriod:DesignDay,
  {b75afd61-d8e9-4517-b018-fe476f66cf64}, ! Handle
  Dillon Ann Clg 1% Condns Enth=>MDB,     ! Name
  26.9,                                   ! Maximum Dry-Bulb Temperature {C}
  17.9,                                   ! Daily Dry-Bulb Temperature Range {deltaC}
  51400,                                  ! Humidity Indicating Conditions at Maximum Dry-Bulb {BasedOnField A3}
  83554,                                  ! Barometric Pressure {Pa}
  4.1,                                    ! Wind Speed {m/s}
  350,                                    ! Wind Direction {deg}
  0,                                      ! Sky Clearness
  0,                                      ! Rain Indicator
  0,                                      ! Snow Indicator
  21,                                     ! Day of Month
  7,                                      ! Month
  SummerDesignDay,                        ! Day Type
  0,                                      ! Daylight Saving Time Indicator
  Enthalpy,                               ! Humidity Indicating Type
  ,                                       ! Humidity Indicating Day Schedule Name
  DefaultMultipliers,                     ! Dry-Bulb Temperature Range Modifier Type
  ,                                       ! Dry-Bulb Temperature Range Modifier Schedule Name
  ASHRAETau,                              ! Solar Model Indicator
  ,                                       ! Beam Solar Day Schedule Name
  ,                                       ! Diffuse Solar Day Schedule Name
  0.377,                                  ! ASHRAE Taub {dimensionless}
  2.177;                                  ! ASHRAE Taud {dimensionless}

