
OS:Version,
  {bc8e61e7-54ae-44ad-ac32-ab7d43c95c03}, ! Handle
  0.9.3;                                  ! Version Identifier

OS:SizingPeriod:DesignDay,
  {5f1d1760-9a14-4a0b-acb8-f9727ed96fc0}, ! Handle
  Harrisburg Capital City Arpt Ann Clg 2% Condns DP=>MDB, ! Name
  25.9,                                   ! Maximum Dry-Bulb Temperature {C}
  10.8,                                   ! Daily Dry-Bulb Temperature Range {deltaC}
  21.9,                                   ! Humidity Indicating Conditions at Maximum Dry-Bulb {BasedOnField A3}
  100082,                                 ! Barometric Pressure {Pa}
  3.8,                                    ! Wind Speed {m/s}
  300,                                    ! Wind Direction {deg}
  0,                                      ! Sky Clearness
  0,                                      ! Rain Indicator
  0,                                      ! Snow Indicator
  21,                                     ! Day of Month
  7,                                      ! Month
  SummerDesignDay,                        ! Day Type
  0,                                      ! Daylight Saving Time Indicator
  Dewpoint,                               ! Humidity Indicating Type
  ,                                       ! Humidity Indicating Day Schedule Name
  DefaultMultipliers,                     ! Dry-Bulb Temperature Range Modifier Type
  ,                                       ! Dry-Bulb Temperature Range Modifier Schedule Name
  ASHRAETau,                              ! Solar Model Indicator
  ,                                       ! Beam Solar Day Schedule Name
  ,                                       ! Diffuse Solar Day Schedule Name
  0.519,                                  ! ASHRAE Taub {dimensionless}
  1.838;                                  ! ASHRAE Taud {dimensionless}

OS:ComponentData,
  {89d8b811-a24f-471f-bff3-6429660f4e63}, ! Handle
  Component Data 1,                       ! Name
  {3b86ea31-b08d-4b4a-9e1d-c2ffbc302bf1}, ! UUID
  {b148e87b-ddad-4aa8-b2f6-b5680fa3010d}, ! Version UUID
  1366310189,                             ! Creation Timestamp
  1366310189,                             ! Version Timestamp
  {5f1d1760-9a14-4a0b-acb8-f9727ed96fc0}; ! Name of Object 1

