
OS:Version,
  {eb32c6b2-b5ae-45b6-a86e-c29f2b39fef8}, ! Handle
  0.9.3;                                  ! Version Identifier

OS:SizingPeriod:DesignDay,
  {273c2f27-641a-4c2e-a116-7a45a450372b}, ! Handle
  Bangor International Ap Ann Hum_n 99.6% Condns DP=>MCDB, ! Name
  -20,                                    ! Maximum Dry-Bulb Temperature {C}
  0,                                      ! Daily Dry-Bulb Temperature Range {deltaC}
  -27.9,                                  ! Humidity Indicating Conditions at Maximum Dry-Bulb {BasedOnField A3}
  100654,                                 ! Barometric Pressure {Pa}
  2.4,                                    ! Wind Speed {m/s}
  310,                                    ! Wind Direction {deg}
  0,                                      ! Sky Clearness
  0,                                      ! Rain Indicator
  0,                                      ! Snow Indicator
  21,                                     ! Day of Month
  1,                                      ! Month
  WinterDesignDay,                        ! Day Type
  0,                                      ! Daylight Saving Time Indicator
  Dewpoint,                               ! Humidity Indicating Type
  ,                                       ! Humidity Indicating Day Schedule Name
  DefaultMultipliers,                     ! Dry-Bulb Temperature Range Modifier Type
  ,                                       ! Dry-Bulb Temperature Range Modifier Schedule Name
  ASHRAEClearSky;                         ! Solar Model Indicator

OS:ComponentData,
  {0ed42053-7669-474c-a85b-1d60a4208207}, ! Handle
  Component Data 1,                       ! Name
  {379c73a1-f48b-47f6-ae77-082aba3bc3e7}, ! UUID
  {d2c8df0a-b4c7-4fc1-9c27-f68b35f23784}, ! Version UUID
  1366307875,                             ! Creation Timestamp
  1366307875,                             ! Version Timestamp
  {273c2f27-641a-4c2e-a116-7a45a450372b}; ! Name of Object 1

