
OS:Version,
  {22fd5ca1-dd91-4281-8c17-fdf606b727e4}, ! Handle
  0.9.3;                                  ! Version Identifier

OS:SizingPeriod:DesignDay,
  {475d2e89-0849-4e3c-ada5-4caf57ffdc40}, ! Handle
  Fayetteville Pope Afb Ann Htg Wind 99.6% Condns WS=>MCDB, ! Name
  11.2,                                   ! Maximum Dry-Bulb Temperature {C}
  0,                                      ! Daily Dry-Bulb Temperature Range {deltaC}
  11.2,                                   ! Humidity Indicating Conditions at Maximum Dry-Bulb {BasedOnField A3}
  100535,                                 ! Barometric Pressure {Pa}
  9.2,                                    ! Wind Speed {m/s}
  0,                                      ! Wind Direction {deg}
  0,                                      ! Sky Clearness
  0,                                      ! Rain Indicator
  0,                                      ! Snow Indicator
  21,                                     ! Day of Month
  1,                                      ! Month
  WinterDesignDay,                        ! Day Type
  0,                                      ! Daylight Saving Time Indicator
  Wetbulb,                                ! Humidity Indicating Type
  ,                                       ! Humidity Indicating Day Schedule Name
  DefaultMultipliers,                     ! Dry-Bulb Temperature Range Modifier Type
  ,                                       ! Dry-Bulb Temperature Range Modifier Schedule Name
  ASHRAEClearSky;                         ! Solar Model Indicator

OS:ComponentData,
  {69f7887c-855c-4c29-8797-3d9d240de352}, ! Handle
  Component Data 1,                       ! Name
  {d644bf92-912a-4e48-9b40-69760c89b1c4}, ! UUID
  {ec735ffa-2e21-4bae-b802-4e26c8399b80}, ! Version UUID
  1366308910,                             ! Creation Timestamp
  1366308910,                             ! Version Timestamp
  {475d2e89-0849-4e3c-ada5-4caf57ffdc40}; ! Name of Object 1

