
OS:Version,
  {76ef78f1-3bff-46c8-8117-7531c4a96679}, ! Handle
  0.9.3;                                  ! Version Identifier

OS:SizingPeriod:DesignDay,
  {a62169c0-2470-4497-895c-322e3b8a6cba}, ! Handle
  Boise Ann Clg 1% Condns DB=>MWB,        ! Name
  35,                                     ! Maximum Dry-Bulb Temperature {C}
  16.7,                                   ! Daily Dry-Bulb Temperature Range {deltaC}
  17.3,                                   ! Humidity Indicating Conditions at Maximum Dry-Bulb {BasedOnField A3}
  91257,                                  ! Barometric Pressure {Pa}
  4.2,                                    ! Wind Speed {m/s}
  330,                                    ! Wind Direction {deg}
  0,                                      ! Sky Clearness
  0,                                      ! Rain Indicator
  0,                                      ! Snow Indicator
  21,                                     ! Day of Month
  7,                                      ! Month
  SummerDesignDay,                        ! Day Type
  0,                                      ! Daylight Saving Time Indicator
  Wetbulb,                                ! Humidity Indicating Type
  ,                                       ! Humidity Indicating Day Schedule Name
  DefaultMultipliers,                     ! Dry-Bulb Temperature Range Modifier Type
  ,                                       ! Dry-Bulb Temperature Range Modifier Schedule Name
  ASHRAETau,                              ! Solar Model Indicator
  ,                                       ! Beam Solar Day Schedule Name
  ,                                       ! Diffuse Solar Day Schedule Name
  0.398,                                  ! ASHRAE Taub {dimensionless}
  2.125;                                  ! ASHRAE Taud {dimensionless}

OS:ComponentData,
  {9d6d0c0e-5ee4-4bc0-b33d-e4ef042d718c}, ! Handle
  Component Data 1,                       ! Name
  {c4a77517-1597-4ced-9872-1a2311a2108d}, ! UUID
  {53b05692-2f73-4b1f-a781-5bf1ba90d930}, ! Version UUID
  1366307265,                             ! Creation Timestamp
  1366307265,                             ! Version Timestamp
  {a62169c0-2470-4497-895c-322e3b8a6cba}; ! Name of Object 1

