
OS:Version,
  {b9d03381-3897-459d-9b3d-1a414e1f9b08}, ! Handle
  0.9.3;                                  ! Version Identifier

OS:SizingPeriod:DesignDay,
  {3475e034-c40b-4349-b017-81e1a8c25d62}, ! Handle
  Las Vegas Mccarran Intl Ap Ann Clg 2% Condns DB=>MWB, ! Name
  39.8,                                   ! Maximum Dry-Bulb Temperature {C}
  13,                                     ! Daily Dry-Bulb Temperature Range {deltaC}
  19.2,                                   ! Humidity Indicating Conditions at Maximum Dry-Bulb {BasedOnField A3}
  93779,                                  ! Barometric Pressure {Pa}
  4.9,                                    ! Wind Speed {m/s}
  230,                                    ! Wind Direction {deg}
  0,                                      ! Sky Clearness
  0,                                      ! Rain Indicator
  0,                                      ! Snow Indicator
  21,                                     ! Day of Month
  7,                                      ! Month
  SummerDesignDay,                        ! Day Type
  0,                                      ! Daylight Saving Time Indicator
  Wetbulb,                                ! Humidity Indicating Type
  ,                                       ! Humidity Indicating Day Schedule Name
  DefaultMultipliers,                     ! Dry-Bulb Temperature Range Modifier Type
  ,                                       ! Dry-Bulb Temperature Range Modifier Schedule Name
  ASHRAETau,                              ! Solar Model Indicator
  ,                                       ! Beam Solar Day Schedule Name
  ,                                       ! Diffuse Solar Day Schedule Name
  0.55,                                   ! ASHRAE Taub {dimensionless}
  1.674;                                  ! ASHRAE Taud {dimensionless}

OS:ComponentData,
  {6afcacfb-50c5-4aac-be6e-66b6fb790148}, ! Handle
  Component Data 1,                       ! Name
  {0e077f18-52d9-4ab9-9a71-dea546eedd18}, ! UUID
  {09ca62bf-505b-4905-8016-938281f89f21}, ! Version UUID
  1366309501,                             ! Creation Timestamp
  1366309501,                             ! Version Timestamp
  {3475e034-c40b-4349-b017-81e1a8c25d62}; ! Name of Object 1

