
OS:Version,
  {4e3d2795-0506-4061-9cd9-fb7c04471e4f}, ! Handle
  0.9.3;                                  ! Version Identifier

OS:SizingPeriod:DesignDay,
  {8e66100e-51bb-428f-8096-8d8302de485f}, ! Handle
  Langley Afb Ann Clg 2% Condns DP=>MDB,  ! Name
  27.7,                                   ! Maximum Dry-Bulb Temperature {C}
  8.3,                                    ! Daily Dry-Bulb Temperature Range {deltaC}
  24,                                     ! Humidity Indicating Conditions at Maximum Dry-Bulb {BasedOnField A3}
  101289,                                 ! Barometric Pressure {Pa}
  4.2,                                    ! Wind Speed {m/s}
  240,                                    ! Wind Direction {deg}
  0,                                      ! Sky Clearness
  0,                                      ! Rain Indicator
  0,                                      ! Snow Indicator
  21,                                     ! Day of Month
  7,                                      ! Month
  SummerDesignDay,                        ! Day Type
  0,                                      ! Daylight Saving Time Indicator
  Dewpoint,                               ! Humidity Indicating Type
  ,                                       ! Humidity Indicating Day Schedule Name
  DefaultMultipliers,                     ! Dry-Bulb Temperature Range Modifier Type
  ,                                       ! Dry-Bulb Temperature Range Modifier Schedule Name
  ASHRAETau,                              ! Solar Model Indicator
  ,                                       ! Beam Solar Day Schedule Name
  ,                                       ! Diffuse Solar Day Schedule Name
  0.596,                                  ! ASHRAE Taub {dimensionless}
  1.685;                                  ! ASHRAE Taud {dimensionless}

OS:ComponentData,
  {8011de8a-7dd3-43d6-bc44-2cc81b0053d5}, ! Handle
  Component Data 1,                       ! Name
  {3ddeea1f-aa5f-4665-8048-d7fec7d1ff46}, ! UUID
  {02aa7f3e-1c60-4248-b887-8d482ab718e0}, ! Version UUID
  1366311072,                             ! Creation Timestamp
  1366311072,                             ! Version Timestamp
  {8e66100e-51bb-428f-8096-8d8302de485f}; ! Name of Object 1

