
OS:Version,
  {80ca3f82-352d-40e7-8ea7-968826b9dbe0}, ! Handle
  0.9.3;                                  ! Version Identifier

OS:SizingPeriod:DesignDay,
  {adebed23-01d4-4101-a7a2-491752dbea10}, ! Handle
  GREENSBORO Ann Hum_n 99.6% Condns DP=>MCDB, ! Name
  -4.1,                                   ! Maximum Dry-Bulb Temperature {C}
  0,                                      ! Daily Dry-Bulb Temperature Range {deltaC}
  -18.2,                                  ! Humidity Indicating Conditions at Maximum Dry-Bulb {BasedOnField A3}
  98123,                                  ! Barometric Pressure {Pa}
  3,                                      ! Wind Speed {m/s}
  300,                                    ! Wind Direction {deg}
  0,                                      ! Sky Clearness
  0,                                      ! Rain Indicator
  0,                                      ! Snow Indicator
  21,                                     ! Day of Month
  1,                                      ! Month
  WinterDesignDay,                        ! Day Type
  0,                                      ! Daylight Saving Time Indicator
  Dewpoint,                               ! Humidity Indicating Type
  ,                                       ! Humidity Indicating Day Schedule Name
  DefaultMultipliers,                     ! Dry-Bulb Temperature Range Modifier Type
  ,                                       ! Dry-Bulb Temperature Range Modifier Schedule Name
  ASHRAEClearSky;                         ! Solar Model Indicator

OS:ComponentData,
  {5c3f11b1-af18-4f68-b2ec-8576e402a0fa}, ! Handle
  Component Data 1,                       ! Name
  {f5a39da8-7f1b-4fd7-9244-705a3f90c2e4}, ! UUID
  {6e9117b5-a1e0-492d-bf02-10db9b908652}, ! Version UUID
  1366308936,                             ! Creation Timestamp
  1366308936,                             ! Version Timestamp
  {adebed23-01d4-4101-a7a2-491752dbea10}; ! Name of Object 1

