
OS:Version,
  {235afe84-1a1d-42c8-83a8-5cbc7a883574}, ! Handle
  0.9.3;                                  ! Version Identifier

OS:SizingPeriod:DesignDay,
  {8c3d27b8-d3c7-4419-a044-0ff52e522b41}, ! Handle
  AUSTIN Ann Clg 1% Condns DP=>MDB,       ! Name
  27.3,                                   ! Maximum Dry-Bulb Temperature {C}
  12.5,                                   ! Daily Dry-Bulb Temperature Range {deltaC}
  24.4,                                   ! Humidity Indicating Conditions at Maximum Dry-Bulb {BasedOnField A3}
  99075,                                  ! Barometric Pressure {Pa}
  3.7,                                    ! Wind Speed {m/s}
  190,                                    ! Wind Direction {deg}
  0,                                      ! Sky Clearness
  0,                                      ! Rain Indicator
  0,                                      ! Snow Indicator
  21,                                     ! Day of Month
  8,                                      ! Month
  SummerDesignDay,                        ! Day Type
  0,                                      ! Daylight Saving Time Indicator
  Dewpoint,                               ! Humidity Indicating Type
  ,                                       ! Humidity Indicating Day Schedule Name
  DefaultMultipliers,                     ! Dry-Bulb Temperature Range Modifier Type
  ,                                       ! Dry-Bulb Temperature Range Modifier Schedule Name
  ASHRAETau,                              ! Solar Model Indicator
  ,                                       ! Beam Solar Day Schedule Name
  ,                                       ! Diffuse Solar Day Schedule Name
  0.457,                                  ! ASHRAE Taub {dimensionless}
  2.114;                                  ! ASHRAE Taud {dimensionless}

