
OS:Version,
  {0c08a518-e186-444d-bff8-9d3e3a744449}, ! Handle
  0.9.3;                                  ! Version Identifier

OS:SizingPeriod:DesignDay,
  {1456c57f-0753-4aab-99d1-9a5bab5cdf9b}, ! Handle
  CHEYENNE Ann Clg 2% Condns Enth=>MDB,   ! Name
  24.1,                                   ! Maximum Dry-Bulb Temperature {C}
  14.6,                                   ! Daily Dry-Bulb Temperature Range {deltaC}
  50900,                                  ! Humidity Indicating Conditions at Maximum Dry-Bulb {BasedOnField A3}
  80767,                                  ! Barometric Pressure {Pa}
  5.3,                                    ! Wind Speed {m/s}
  170,                                    ! Wind Direction {deg}
  0,                                      ! Sky Clearness
  0,                                      ! Rain Indicator
  0,                                      ! Snow Indicator
  21,                                     ! Day of Month
  7,                                      ! Month
  SummerDesignDay,                        ! Day Type
  0,                                      ! Daylight Saving Time Indicator
  Enthalpy,                               ! Humidity Indicating Type
  ,                                       ! Humidity Indicating Day Schedule Name
  DefaultMultipliers,                     ! Dry-Bulb Temperature Range Modifier Type
  ,                                       ! Dry-Bulb Temperature Range Modifier Schedule Name
  ASHRAETau,                              ! Solar Model Indicator
  ,                                       ! Beam Solar Day Schedule Name
  ,                                       ! Diffuse Solar Day Schedule Name
  0.404,                                  ! ASHRAE Taub {dimensionless}
  2.038;                                  ! ASHRAE Taud {dimensionless}

OS:ComponentData,
  {f407cba2-4933-4aba-8ab7-8dff0afe60a0}, ! Handle
  Component Data 1,                       ! Name
  {e5b2ace6-b857-411f-9fae-684665196e89}, ! UUID
  {11b63da9-f3b4-4a99-a9d9-cfe619e695e3}, ! Version UUID
  1366311702,                             ! Creation Timestamp
  1366311702,                             ! Version Timestamp
  {1456c57f-0753-4aab-99d1-9a5bab5cdf9b}; ! Name of Object 1

