
OS:Version,
  {cce7ddcb-863e-47ee-b980-0ac74d8f2ccb}, ! Handle
  0.9.3;                                  ! Version Identifier

OS:SizingPeriod:DesignDay,
  {811edd56-cb55-4784-baa0-8243e7a6bb16}, ! Handle
  Hot Springs Ingalls Ann Clg .4% Condns Enth=>MDB, ! Name
  24.6,                                   ! Maximum Dry-Bulb Temperature {C}
  7.7,                                    ! Daily Dry-Bulb Temperature Range {deltaC}
  70800,                                  ! Humidity Indicating Conditions at Maximum Dry-Bulb {BasedOnField A3}
  88187,                                  ! Barometric Pressure {Pa}
  3.5,                                    ! Wind Speed {m/s}
  280,                                    ! Wind Direction {deg}
  0,                                      ! Sky Clearness
  0,                                      ! Rain Indicator
  0,                                      ! Snow Indicator
  21,                                     ! Day of Month
  7,                                      ! Month
  SummerDesignDay,                        ! Day Type
  0,                                      ! Daylight Saving Time Indicator
  Enthalpy,                               ! Humidity Indicating Type
  ,                                       ! Humidity Indicating Day Schedule Name
  DefaultMultipliers,                     ! Dry-Bulb Temperature Range Modifier Type
  ,                                       ! Dry-Bulb Temperature Range Modifier Schedule Name
  ASHRAETau,                              ! Solar Model Indicator
  ,                                       ! Beam Solar Day Schedule Name
  ,                                       ! Diffuse Solar Day Schedule Name
  0.445,                                  ! ASHRAE Taub {dimensionless}
  2.005;                                  ! ASHRAE Taud {dimensionless}

