
OS:Version,
  {b7b70f0a-200d-4479-93d3-ecb91a1c4c8a}, ! Handle
  0.9.3;                                  ! Version Identifier

OS:SizingPeriod:DesignDay,
  {aa972175-d9f5-476f-a667-32434a1f3707}, ! Handle
  Little Falls  Awos Ann Clg 2% Condns Enth=>MDB, ! Name
  26.4,                                   ! Maximum Dry-Bulb Temperature {C}
  12.3,                                   ! Daily Dry-Bulb Temperature Range {deltaC}
  66700,                                  ! Humidity Indicating Conditions at Maximum Dry-Bulb {BasedOnField A3}
  97283,                                  ! Barometric Pressure {Pa}
  4.5,                                    ! Wind Speed {m/s}
  190,                                    ! Wind Direction {deg}
  0,                                      ! Sky Clearness
  0,                                      ! Rain Indicator
  0,                                      ! Snow Indicator
  21,                                     ! Day of Month
  7,                                      ! Month
  SummerDesignDay,                        ! Day Type
  0,                                      ! Daylight Saving Time Indicator
  Enthalpy,                               ! Humidity Indicating Type
  ,                                       ! Humidity Indicating Day Schedule Name
  DefaultMultipliers,                     ! Dry-Bulb Temperature Range Modifier Type
  ,                                       ! Dry-Bulb Temperature Range Modifier Schedule Name
  ASHRAETau,                              ! Solar Model Indicator
  ,                                       ! Beam Solar Day Schedule Name
  ,                                       ! Diffuse Solar Day Schedule Name
  0.398,                                  ! ASHRAE Taub {dimensionless}
  2.244;                                  ! ASHRAE Taud {dimensionless}

OS:ComponentData,
  {9c256338-ee9d-437d-a850-333cbe03c302}, ! Handle
  Component Data 1,                       ! Name
  {9a046f65-02bd-4f19-b37d-495eec3b61b1}, ! UUID
  {b08295e6-e109-4511-afa8-4972f634e7a6}, ! Version UUID
  1366308289,                             ! Creation Timestamp
  1366308289,                             ! Version Timestamp
  {aa972175-d9f5-476f-a667-32434a1f3707}; ! Name of Object 1

