
OS:Version,
  {f5f0f602-647e-4328-be93-c733bb914d5e}, ! Handle
  0.9.3;                                  ! Version Identifier

OS:SizingPeriod:DesignDay,
  {8d077652-259a-4114-88be-39fa3efd0846}, ! Handle
  Jamestown Municipal Arpt Ann Clg .4% Condns DB=>MWB, ! Name
  33.1,                                   ! Maximum Dry-Bulb Temperature {C}
  12.5,                                   ! Daily Dry-Bulb Temperature Range {deltaC}
  21.4,                                   ! Humidity Indicating Conditions at Maximum Dry-Bulb {BasedOnField A3}
  95977,                                  ! Barometric Pressure {Pa}
  5.7,                                    ! Wind Speed {m/s}
  170,                                    ! Wind Direction {deg}
  0,                                      ! Sky Clearness
  0,                                      ! Rain Indicator
  0,                                      ! Snow Indicator
  21,                                     ! Day of Month
  7,                                      ! Month
  SummerDesignDay,                        ! Day Type
  0,                                      ! Daylight Saving Time Indicator
  Wetbulb,                                ! Humidity Indicating Type
  ,                                       ! Humidity Indicating Day Schedule Name
  DefaultMultipliers,                     ! Dry-Bulb Temperature Range Modifier Type
  ,                                       ! Dry-Bulb Temperature Range Modifier Schedule Name
  ASHRAETau,                              ! Solar Model Indicator
  ,                                       ! Beam Solar Day Schedule Name
  ,                                       ! Diffuse Solar Day Schedule Name
  0.384,                                  ! ASHRAE Taub {dimensionless}
  2.288;                                  ! ASHRAE Taud {dimensionless}

OS:ComponentData,
  {89a0006a-4c9d-4ecb-8047-ca29c58ba857}, ! Handle
  Component Data 1,                       ! Name
  {81a1d067-9563-4b3a-b09b-d351bacff986}, ! UUID
  {a2a32140-6119-43b6-bb0b-984ab12d9a24}, ! Version UUID
  1366309051,                             ! Creation Timestamp
  1366309051,                             ! Version Timestamp
  {8d077652-259a-4114-88be-39fa3efd0846}; ! Name of Object 1

