
OS:Version,
  {260d0fda-2e8f-4476-8ae2-e158086a50cc}, ! Handle
  0.9.3;                                  ! Version Identifier

OS:SizingPeriod:DesignDay,
  {f214011e-9b27-4947-aae6-368e21e27b57}, ! Handle
  Fresno Yosemite Intl Ap Ann Clg 2% Condns Enth=>MDB, ! Name
  34.4,                                   ! Maximum Dry-Bulb Temperature {C}
  16.4,                                   ! Daily Dry-Bulb Temperature Range {deltaC}
  62700,                                  ! Humidity Indicating Conditions at Maximum Dry-Bulb {BasedOnField A3}
  100106,                                 ! Barometric Pressure {Pa}
  3.7,                                    ! Wind Speed {m/s}
  300,                                    ! Wind Direction {deg}
  0,                                      ! Sky Clearness
  0,                                      ! Rain Indicator
  0,                                      ! Snow Indicator
  21,                                     ! Day of Month
  7,                                      ! Month
  SummerDesignDay,                        ! Day Type
  0,                                      ! Daylight Saving Time Indicator
  Enthalpy,                               ! Humidity Indicating Type
  ,                                       ! Humidity Indicating Day Schedule Name
  DefaultMultipliers,                     ! Dry-Bulb Temperature Range Modifier Type
  ,                                       ! Dry-Bulb Temperature Range Modifier Schedule Name
  ASHRAETau,                              ! Solar Model Indicator
  ,                                       ! Beam Solar Day Schedule Name
  ,                                       ! Diffuse Solar Day Schedule Name
  0.428,                                  ! ASHRAE Taub {dimensionless}
  2.152;                                  ! ASHRAE Taud {dimensionless}

