
OS:Version,
  {d63646d4-9523-4df1-87a3-76626e33b8f2}, ! Handle
  0.9.3;                                  ! Version Identifier

OS:SizingPeriod:DesignDay,
  {a9aba899-23d8-40a1-a3d6-a43d8486b0bb}, ! Handle
  COLD_BAY Ann Clg .4% Condns WB=>MDB,    ! Name
  14.6,                                   ! Maximum Dry-Bulb Temperature {C}
  4.4,                                    ! Daily Dry-Bulb Temperature Range {deltaC}
  13.3,                                   ! Humidity Indicating Conditions at Maximum Dry-Bulb {BasedOnField A3}
  100977,                                 ! Barometric Pressure {Pa}
  7,                                      ! Wind Speed {m/s}
  150,                                    ! Wind Direction {deg}
  0,                                      ! Sky Clearness
  0,                                      ! Rain Indicator
  0,                                      ! Snow Indicator
  21,                                     ! Day of Month
  8,                                      ! Month
  SummerDesignDay,                        ! Day Type
  0,                                      ! Daylight Saving Time Indicator
  Wetbulb,                                ! Humidity Indicating Type
  ,                                       ! Humidity Indicating Day Schedule Name
  DefaultMultipliers,                     ! Dry-Bulb Temperature Range Modifier Type
  ,                                       ! Dry-Bulb Temperature Range Modifier Schedule Name
  ASHRAETau,                              ! Solar Model Indicator
  ,                                       ! Beam Solar Day Schedule Name
  ,                                       ! Diffuse Solar Day Schedule Name
  0.383,                                  ! ASHRAE Taub {dimensionless}
  2.26;                                   ! ASHRAE Taud {dimensionless}

OS:ComponentData,
  {29e6a4ce-2f59-45fe-89b0-5ba47f98642c}, ! Handle
  Component Data 1,                       ! Name
  {6f18bcc5-4c18-4278-8439-d3043b759a55}, ! UUID
  {22eab6ed-e662-4b88-bd0c-764a6d71e2de}, ! Version UUID
  1366304809,                             ! Creation Timestamp
  1366304809,                             ! Version Timestamp
  {a9aba899-23d8-40a1-a3d6-a43d8486b0bb}; ! Name of Object 1

