
OS:Version,
  {f9ea5fd9-f16f-4017-87d1-a5503ff2adbb}, ! Handle
  0.9.3;                                  ! Version Identifier

OS:SizingPeriod:DesignDay,
  {417845ab-6c64-4b0e-a01a-62009015e1b5}, ! Handle
  Fallon Naas Ann Hum_n 99.6% Condns DP=>MCDB, ! Name
  -8.5,                                   ! Maximum Dry-Bulb Temperature {C}
  0,                                      ! Daily Dry-Bulb Temperature Range {deltaC}
  -17.8,                                  ! Humidity Indicating Conditions at Maximum Dry-Bulb {BasedOnField A3}
  87726,                                  ! Barometric Pressure {Pa}
  0.9,                                    ! Wind Speed {m/s}
  160,                                    ! Wind Direction {deg}
  0,                                      ! Sky Clearness
  0,                                      ! Rain Indicator
  0,                                      ! Snow Indicator
  21,                                     ! Day of Month
  12,                                     ! Month
  WinterDesignDay,                        ! Day Type
  0,                                      ! Daylight Saving Time Indicator
  Dewpoint,                               ! Humidity Indicating Type
  ,                                       ! Humidity Indicating Day Schedule Name
  DefaultMultipliers,                     ! Dry-Bulb Temperature Range Modifier Type
  ,                                       ! Dry-Bulb Temperature Range Modifier Schedule Name
  ASHRAEClearSky;                         ! Solar Model Indicator

OS:ComponentData,
  {1c562cbc-9cda-4f06-91ce-639e0598a956}, ! Handle
  Component Data 1,                       ! Name
  {5cfb0ca0-f247-4cb2-afae-cfc31364ec21}, ! UUID
  {c619a4f8-1c19-448d-bad2-178b121ee8ae}, ! Version UUID
  1366309491,                             ! Creation Timestamp
  1366309491,                             ! Version Timestamp
  {417845ab-6c64-4b0e-a01a-62009015e1b5}; ! Name of Object 1

