
OS:Version,
  {e6647708-c24c-404f-878d-64175232b999}, ! Handle
  0.9.3;                                  ! Version Identifier

OS:SizingPeriod:DesignDay,
  {3e791f90-6b02-4fdc-a054-164fc834b9b4}, ! Handle
  Fort Worth Nas Ann Clg 1% Condns DP=>MDB, ! Name
  28.8,                                   ! Maximum Dry-Bulb Temperature {C}
  10.7,                                   ! Daily Dry-Bulb Temperature Range {deltaC}
  23.8,                                   ! Humidity Indicating Conditions at Maximum Dry-Bulb {BasedOnField A3}
  99122,                                  ! Barometric Pressure {Pa}
  4,                                      ! Wind Speed {m/s}
  160,                                    ! Wind Direction {deg}
  0,                                      ! Sky Clearness
  0,                                      ! Rain Indicator
  0,                                      ! Snow Indicator
  21,                                     ! Day of Month
  7,                                      ! Month
  SummerDesignDay,                        ! Day Type
  0,                                      ! Daylight Saving Time Indicator
  Dewpoint,                               ! Humidity Indicating Type
  ,                                       ! Humidity Indicating Day Schedule Name
  DefaultMultipliers,                     ! Dry-Bulb Temperature Range Modifier Type
  ,                                       ! Dry-Bulb Temperature Range Modifier Schedule Name
  ASHRAETau,                              ! Solar Model Indicator
  ,                                       ! Beam Solar Day Schedule Name
  ,                                       ! Diffuse Solar Day Schedule Name
  0.463,                                  ! ASHRAE Taub {dimensionless}
  2.081;                                  ! ASHRAE Taud {dimensionless}

OS:ComponentData,
  {eb53cbbb-f0e5-4d4a-912a-20f34a6b47b9}, ! Handle
  Component Data 1,                       ! Name
  {a0a6e867-db08-4bb3-8c61-3db07a997907}, ! UUID
  {c8eb7a4b-c207-4a01-a02d-d186a8ed2498}, ! Version UUID
  1366310714,                             ! Creation Timestamp
  1366310714,                             ! Version Timestamp
  {3e791f90-6b02-4fdc-a054-164fc834b9b4}; ! Name of Object 1

