
OS:Version,
  {1a5a98d6-1f5f-45d8-8fa9-66c59146226a}, ! Handle
  0.9.3;                                  ! Version Identifier

OS:SizingPeriod:DesignDay,
  {d2b05830-228e-49a7-ab3b-b9ed7540eab0}, ! Handle
  Del Rio/Intl Ap Ann Clg .4% Condns Enth=>MDB, ! Name
  31.8,                                   ! Maximum Dry-Bulb Temperature {C}
  11.4,                                   ! Daily Dry-Bulb Temperature Range {deltaC}
  79000,                                  ! Humidity Indicating Conditions at Maximum Dry-Bulb {BasedOnField A3}
  97458,                                  ! Barometric Pressure {Pa}
  4.8,                                    ! Wind Speed {m/s}
  140,                                    ! Wind Direction {deg}
  0,                                      ! Sky Clearness
  0,                                      ! Rain Indicator
  0,                                      ! Snow Indicator
  21,                                     ! Day of Month
  7,                                      ! Month
  SummerDesignDay,                        ! Day Type
  0,                                      ! Daylight Saving Time Indicator
  Enthalpy,                               ! Humidity Indicating Type
  ,                                       ! Humidity Indicating Day Schedule Name
  DefaultMultipliers,                     ! Dry-Bulb Temperature Range Modifier Type
  ,                                       ! Dry-Bulb Temperature Range Modifier Schedule Name
  ASHRAETau,                              ! Solar Model Indicator
  ,                                       ! Beam Solar Day Schedule Name
  ,                                       ! Diffuse Solar Day Schedule Name
  0.48,                                   ! ASHRAE Taub {dimensionless}
  1.993;                                  ! ASHRAE Taud {dimensionless}

OS:ComponentData,
  {fff5627a-14b3-487b-bd82-790cb550b387}, ! Handle
  Component Data 1,                       ! Name
  {568b4aea-cdc4-4751-b68f-9e06a7e969bf}, ! UUID
  {40cda53d-5781-419a-a078-dd03f12be71c}, ! Version UUID
  1366310673,                             ! Creation Timestamp
  1366310673,                             ! Version Timestamp
  {d2b05830-228e-49a7-ab3b-b9ed7540eab0}; ! Name of Object 1

