
OS:Version,
  {dceb266f-594c-4c5f-b802-31bceed0ffcb}, ! Handle
  0.9.3;                                  ! Version Identifier

OS:SizingPeriod:DesignDay,
  {327e8901-02c4-48a5-88c8-2355c0940172}, ! Handle
  FRESNO Ann Clg 2% Condns DP=>MDB,       ! Name
  28,                                     ! Maximum Dry-Bulb Temperature {C}
  16.4,                                   ! Daily Dry-Bulb Temperature Range {deltaC}
  16.5,                                   ! Humidity Indicating Conditions at Maximum Dry-Bulb {BasedOnField A3}
  100129,                                 ! Barometric Pressure {Pa}
  3.7,                                    ! Wind Speed {m/s}
  300,                                    ! Wind Direction {deg}
  0,                                      ! Sky Clearness
  0,                                      ! Rain Indicator
  0,                                      ! Snow Indicator
  21,                                     ! Day of Month
  7,                                      ! Month
  SummerDesignDay,                        ! Day Type
  0,                                      ! Daylight Saving Time Indicator
  Dewpoint,                               ! Humidity Indicating Type
  ,                                       ! Humidity Indicating Day Schedule Name
  DefaultMultipliers,                     ! Dry-Bulb Temperature Range Modifier Type
  ,                                       ! Dry-Bulb Temperature Range Modifier Schedule Name
  ASHRAETau,                              ! Solar Model Indicator
  ,                                       ! Beam Solar Day Schedule Name
  ,                                       ! Diffuse Solar Day Schedule Name
  0.428,                                  ! ASHRAE Taub {dimensionless}
  2.152;                                  ! ASHRAE Taud {dimensionless}

OS:ComponentData,
  {b063a8e9-2d16-4ba1-87ee-77b2e80f40de}, ! Handle
  Component Data 1,                       ! Name
  {b60ce3d1-cd2f-4b0d-8eb0-e3b7f1c2cad4}, ! UUID
  {6cf5de15-bd67-4f07-a8b5-54e827adf7ef}, ! Version UUID
  1366306434,                             ! Creation Timestamp
  1366306434,                             ! Version Timestamp
  {327e8901-02c4-48a5-88c8-2355c0940172}; ! Name of Object 1

