
OS:Version,
  {ce924b85-35dd-43e6-b36b-4a7005faf9e2}, ! Handle
  0.9.3;                                  ! Version Identifier

OS:SizingPeriod:DesignDay,
  {5714af59-73d1-4412-9dff-727eaebfeef0}, ! Handle
  DAGGETT Ann Htg Wind 99% Condns WS=>MCDB, ! Name
  11.5,                                   ! Maximum Dry-Bulb Temperature {C}
  0,                                      ! Daily Dry-Bulb Temperature Range {deltaC}
  11.5,                                   ! Humidity Indicating Conditions at Maximum Dry-Bulb {BasedOnField A3}
  94458,                                  ! Barometric Pressure {Pa}
  13.1,                                   ! Wind Speed {m/s}
  280,                                    ! Wind Direction {deg}
  0,                                      ! Sky Clearness
  0,                                      ! Rain Indicator
  0,                                      ! Snow Indicator
  21,                                     ! Day of Month
  12,                                     ! Month
  WinterDesignDay,                        ! Day Type
  0,                                      ! Daylight Saving Time Indicator
  Wetbulb,                                ! Humidity Indicating Type
  ,                                       ! Humidity Indicating Day Schedule Name
  DefaultMultipliers,                     ! Dry-Bulb Temperature Range Modifier Type
  ,                                       ! Dry-Bulb Temperature Range Modifier Schedule Name
  ASHRAEClearSky;                         ! Solar Model Indicator

OS:ComponentData,
  {69f495bd-872f-44fa-92d8-10cbe319cd64}, ! Handle
  Component Data 1,                       ! Name
  {e29efed5-645c-4430-962f-128afc340a04}, ! UUID
  {f3534be0-e468-49ed-aee7-b84635a8b918}, ! Version UUID
  1366306371,                             ! Creation Timestamp
  1366306371,                             ! Version Timestamp
  {5714af59-73d1-4412-9dff-727eaebfeef0}; ! Name of Object 1

