
OS:Version,
  {42c88b16-1d6b-45bb-ae58-a88de6c16253}, ! Handle
  0.9.3;                                  ! Version Identifier

OS:SizingPeriod:DesignDay,
  {e9f93f32-d5d4-4bfc-b910-1f6f10e8ab56}, ! Handle
  Jacksonville  Awos Ann Htg Wind 99% Condns WS=>MCDB, ! Name
  15.1,                                   ! Maximum Dry-Bulb Temperature {C}
  0,                                      ! Daily Dry-Bulb Temperature Range {deltaC}
  15.1,                                   ! Humidity Indicating Conditions at Maximum Dry-Bulb {BasedOnField A3}
  100977,                                 ! Barometric Pressure {Pa}
  9.5,                                    ! Wind Speed {m/s}
  0,                                      ! Wind Direction {deg}
  0,                                      ! Sky Clearness
  0,                                      ! Rain Indicator
  0,                                      ! Snow Indicator
  21,                                     ! Day of Month
  1,                                      ! Month
  WinterDesignDay,                        ! Day Type
  0,                                      ! Daylight Saving Time Indicator
  Wetbulb,                                ! Humidity Indicating Type
  ,                                       ! Humidity Indicating Day Schedule Name
  DefaultMultipliers,                     ! Dry-Bulb Temperature Range Modifier Type
  ,                                       ! Dry-Bulb Temperature Range Modifier Schedule Name
  ASHRAEClearSky;                         ! Solar Model Indicator

OS:ComponentData,
  {9835077f-7a93-4798-878d-990a845c0b66}, ! Handle
  Component Data 1,                       ! Name
  {2d04005d-5368-43d1-8457-ba3509f97f4e}, ! UUID
  {75c82e41-9fae-40d6-9fae-79f1ea5f3bb7}, ! Version UUID
  1366308944,                             ! Creation Timestamp
  1366308944,                             ! Version Timestamp
  {e9f93f32-d5d4-4bfc-b910-1f6f10e8ab56}; ! Name of Object 1

