
OS:Version,
  {283596f0-f712-4fc9-9f8d-9cf0c2778fcd}, ! Handle
  0.9.3;                                  ! Version Identifier

OS:SizingPeriod:DesignDay,
  {e3a94670-a42b-496c-b3ed-7099b2ff6f3a}, ! Handle
  Albany Dougherty County Ap Ann Hum_n 99.6% Condns DP=>MCDB, ! Name
  2.4,                                    ! Maximum Dry-Bulb Temperature {C}
  0,                                      ! Daily Dry-Bulb Temperature Range {deltaC}
  -12.3,                                  ! Humidity Indicating Conditions at Maximum Dry-Bulb {BasedOnField A3}
  100630,                                 ! Barometric Pressure {Pa}
  1.8,                                    ! Wind Speed {m/s}
  330,                                    ! Wind Direction {deg}
  0,                                      ! Sky Clearness
  0,                                      ! Rain Indicator
  0,                                      ! Snow Indicator
  21,                                     ! Day of Month
  1,                                      ! Month
  WinterDesignDay,                        ! Day Type
  0,                                      ! Daylight Saving Time Indicator
  Dewpoint,                               ! Humidity Indicating Type
  ,                                       ! Humidity Indicating Day Schedule Name
  DefaultMultipliers,                     ! Dry-Bulb Temperature Range Modifier Type
  ,                                       ! Dry-Bulb Temperature Range Modifier Schedule Name
  ASHRAEClearSky;                         ! Solar Model Indicator

OS:ComponentData,
  {41425c91-4c71-4737-8a69-698a2a3133f1}, ! Handle
  Component Data 1,                       ! Name
  {22c12c4e-0604-421f-bff0-7a43bf723772}, ! UUID
  {79ee2cf6-0773-45bb-bca4-6abfdcad6b23}, ! Version UUID
  1366306960,                             ! Creation Timestamp
  1366306960,                             ! Version Timestamp
  {e3a94670-a42b-496c-b3ed-7099b2ff6f3a}; ! Name of Object 1

