
OS:Version,
  {bb7e9966-afe5-4ef6-98ec-8474af8d18f0}, ! Handle
  0.9.3;                                  ! Version Identifier

OS:SizingPeriod:DesignDay,
  {3ce9ce18-0370-4c36-8d63-bc87c9efdbc0}, ! Handle
  Columbus Port Columbus Intl A Ann Clg .4% Condns DB=>MWB, ! Name
  32.8,                                   ! Maximum Dry-Bulb Temperature {C}
  10.5,                                   ! Daily Dry-Bulb Temperature Range {deltaC}
  23.2,                                   ! Humidity Indicating Conditions at Maximum Dry-Bulb {BasedOnField A3}
  98393,                                  ! Barometric Pressure {Pa}
  4.3,                                    ! Wind Speed {m/s}
  240,                                    ! Wind Direction {deg}
  0,                                      ! Sky Clearness
  0,                                      ! Rain Indicator
  0,                                      ! Snow Indicator
  21,                                     ! Day of Month
  7,                                      ! Month
  SummerDesignDay,                        ! Day Type
  0,                                      ! Daylight Saving Time Indicator
  Wetbulb,                                ! Humidity Indicating Type
  ,                                       ! Humidity Indicating Day Schedule Name
  DefaultMultipliers,                     ! Dry-Bulb Temperature Range Modifier Type
  ,                                       ! Dry-Bulb Temperature Range Modifier Schedule Name
  ASHRAETau,                              ! Solar Model Indicator
  ,                                       ! Beam Solar Day Schedule Name
  ,                                       ! Diffuse Solar Day Schedule Name
  0.484,                                  ! ASHRAE Taub {dimensionless}
  1.943;                                  ! ASHRAE Taud {dimensionless}

OS:ComponentData,
  {12314228-49c7-45c6-b7a4-c8e94d5648fb}, ! Handle
  Component Data 1,                       ! Name
  {d6cbc0dc-d72d-4d0e-a297-a45ebb00382f}, ! UUID
  {ca9f4f7e-645b-4994-8529-9332ac394d18}, ! Version UUID
  1366309798,                             ! Creation Timestamp
  1366309798,                             ! Version Timestamp
  {3ce9ce18-0370-4c36-8d63-bc87c9efdbc0}; ! Name of Object 1

