
OS:Version,
  {cf88ca20-f407-4829-94d4-f2b56bfa6eca}, ! Handle
  0.9.3;                                  ! Version Identifier

OS:SizingPeriod:DesignDay,
  {25a4b328-f4a5-4aad-a182-2c80095c94ac}, ! Handle
  Clinton Sherman Ann Htg 99% Condns DB,  ! Name
  -7,                                     ! Maximum Dry-Bulb Temperature {C}
  0,                                      ! Daily Dry-Bulb Temperature Range {deltaC}
  -7,                                     ! Humidity Indicating Conditions at Maximum Dry-Bulb {BasedOnField A3}
  94480,                                  ! Barometric Pressure {Pa}
  5.2,                                    ! Wind Speed {m/s}
  10,                                     ! Wind Direction {deg}
  0,                                      ! Sky Clearness
  0,                                      ! Rain Indicator
  0,                                      ! Snow Indicator
  21,                                     ! Day of Month
  1,                                      ! Month
  WinterDesignDay,                        ! Day Type
  0,                                      ! Daylight Saving Time Indicator
  Wetbulb,                                ! Humidity Indicating Type
  ,                                       ! Humidity Indicating Day Schedule Name
  DefaultMultipliers,                     ! Dry-Bulb Temperature Range Modifier Type
  ,                                       ! Dry-Bulb Temperature Range Modifier Schedule Name
  ASHRAEClearSky;                         ! Solar Model Indicator

OS:ComponentData,
  {d753e977-db6a-4f95-bd3d-d4a1e04b0179}, ! Handle
  Component Data 1,                       ! Name
  {7e6d7133-8f1e-4dbb-9e7b-c7fcf0b4afe9}, ! UUID
  {ccea0db9-8caa-420a-900a-172d9a34fa1a}, ! Version UUID
  1366309883,                             ! Creation Timestamp
  1366309883,                             ! Version Timestamp
  {25a4b328-f4a5-4aad-a182-2c80095c94ac}; ! Name of Object 1

