
OS:Version,
  {6f484f7f-2c31-46ae-8960-66bad48b4a71}, ! Handle
  0.9.3;                                  ! Version Identifier

OS:SizingPeriod:DesignDay,
  {b8b33a05-51bb-47f5-875a-f9f76301ded1}, ! Handle
  Detroit Lakes Awos Ann Htg Wind 99.6% Condns WS=>MCDB, ! Name
  -11.9,                                  ! Maximum Dry-Bulb Temperature {C}
  0,                                      ! Daily Dry-Bulb Temperature Range {deltaC}
  -11.9,                                  ! Humidity Indicating Conditions at Maximum Dry-Bulb {BasedOnField A3}
  96311,                                  ! Barometric Pressure {Pa}
  12.1,                                   ! Wind Speed {m/s}
  320,                                    ! Wind Direction {deg}
  0,                                      ! Sky Clearness
  0,                                      ! Rain Indicator
  0,                                      ! Snow Indicator
  21,                                     ! Day of Month
  1,                                      ! Month
  WinterDesignDay,                        ! Day Type
  0,                                      ! Daylight Saving Time Indicator
  Wetbulb,                                ! Humidity Indicating Type
  ,                                       ! Humidity Indicating Day Schedule Name
  DefaultMultipliers,                     ! Dry-Bulb Temperature Range Modifier Type
  ,                                       ! Dry-Bulb Temperature Range Modifier Schedule Name
  ASHRAEClearSky;                         ! Solar Model Indicator

OS:ComponentData,
  {2af45889-d7ad-4d22-a8eb-52d7b1a95df6}, ! Handle
  Component Data 1,                       ! Name
  {842760bb-89c2-4d9d-9878-bb4ee23a0e80}, ! UUID
  {ea133e94-76ea-4c8b-88f7-0eddb8728420}, ! Version UUID
  1366308192,                             ! Creation Timestamp
  1366308192,                             ! Version Timestamp
  {b8b33a05-51bb-47f5-875a-f9f76301ded1}; ! Name of Object 1

