
OS:Version,
  {1fb95c45-1a8a-4999-b530-53764e9b5c91}, ! Handle
  0.9.3;                                  ! Version Identifier

OS:SizingPeriod:DesignDay,
  {8ef663cf-ab65-4afc-9d5e-7e5d4375a707}, ! Handle
  Albany County Ap Ann Clg .4% Condns Enth=>MDB, ! Name
  29.6,                                   ! Maximum Dry-Bulb Temperature {C}
  11.1,                                   ! Daily Dry-Bulb Temperature Range {deltaC}
  73500,                                  ! Humidity Indicating Conditions at Maximum Dry-Bulb {BasedOnField A3}
  100320,                                 ! Barometric Pressure {Pa}
  4.4,                                    ! Wind Speed {m/s}
  180,                                    ! Wind Direction {deg}
  0,                                      ! Sky Clearness
  0,                                      ! Rain Indicator
  0,                                      ! Snow Indicator
  21,                                     ! Day of Month
  7,                                      ! Month
  SummerDesignDay,                        ! Day Type
  0,                                      ! Daylight Saving Time Indicator
  Enthalpy,                               ! Humidity Indicating Type
  ,                                       ! Humidity Indicating Day Schedule Name
  DefaultMultipliers,                     ! Dry-Bulb Temperature Range Modifier Type
  ,                                       ! Dry-Bulb Temperature Range Modifier Schedule Name
  ASHRAETau,                              ! Solar Model Indicator
  ,                                       ! Beam Solar Day Schedule Name
  ,                                       ! Diffuse Solar Day Schedule Name
  0.49,                                   ! ASHRAE Taub {dimensionless}
  1.923;                                  ! ASHRAE Taud {dimensionless}

OS:ComponentData,
  {95b44e35-fdde-43e9-acbe-3e4b4f25cee3}, ! Handle
  Component Data 1,                       ! Name
  {f8044e3a-fa8d-42ef-9a7a-6c3f82debfef}, ! UUID
  {6aaaad97-fc05-4e57-8a9d-ac49bce07d19}, ! Version UUID
  1366309586,                             ! Creation Timestamp
  1366309586,                             ! Version Timestamp
  {8ef663cf-ab65-4afc-9d5e-7e5d4375a707}; ! Name of Object 1

