
OS:Version,
  {e0c4645c-24f7-4136-841d-15a7722898f7}, ! Handle
  0.9.3;                                  ! Version Identifier

OS:SizingPeriod:DesignDay,
  {75a5e55b-cb34-4f80-92e5-5aa2e8b2cc83}, ! Handle
  Albany Dougherty County Ap Ann Clg .4% Condns Enth=>MDB, ! Name
  32.3,                                   ! Maximum Dry-Bulb Temperature {C}
  10.7,                                   ! Daily Dry-Bulb Temperature Range {deltaC}
  82600,                                  ! Humidity Indicating Conditions at Maximum Dry-Bulb {BasedOnField A3}
  100630,                                 ! Barometric Pressure {Pa}
  3.6,                                    ! Wind Speed {m/s}
  240,                                    ! Wind Direction {deg}
  0,                                      ! Sky Clearness
  0,                                      ! Rain Indicator
  0,                                      ! Snow Indicator
  21,                                     ! Day of Month
  7,                                      ! Month
  SummerDesignDay,                        ! Day Type
  0,                                      ! Daylight Saving Time Indicator
  Enthalpy,                               ! Humidity Indicating Type
  ,                                       ! Humidity Indicating Day Schedule Name
  DefaultMultipliers,                     ! Dry-Bulb Temperature Range Modifier Type
  ,                                       ! Dry-Bulb Temperature Range Modifier Schedule Name
  ASHRAETau,                              ! Solar Model Indicator
  ,                                       ! Beam Solar Day Schedule Name
  ,                                       ! Diffuse Solar Day Schedule Name
  0.547,                                  ! ASHRAE Taub {dimensionless}
  1.824;                                  ! ASHRAE Taud {dimensionless}

OS:ComponentData,
  {e3f5bee5-d677-430e-b85f-55475002e7b9}, ! Handle
  Component Data 1,                       ! Name
  {56df46d7-52a3-4dcb-8184-cee4260a52a9}, ! UUID
  {a22c39f2-9f5b-4c4a-97d3-f9aec6323c81}, ! Version UUID
  1366306962,                             ! Creation Timestamp
  1366306962,                             ! Version Timestamp
  {75a5e55b-cb34-4f80-92e5-5aa2e8b2cc83}; ! Name of Object 1

