
OS:Version,
  {48210573-a664-4750-ba92-82b8fbc18d08}, ! Handle
  0.9.3;                                  ! Version Identifier

OS:SizingPeriod:DesignDay,
  {09dd883b-5d7f-4333-ad59-38b0b4587e07}, ! Handle
  Hattiesburg Laurel Ann Htg Wind 99.6% Condns WS=>MCDB, ! Name
  11.9,                                   ! Maximum Dry-Bulb Temperature {C}
  0,                                      ! Daily Dry-Bulb Temperature Range {deltaC}
  11.9,                                   ! Humidity Indicating Conditions at Maximum Dry-Bulb {BasedOnField A3}
  100213,                                 ! Barometric Pressure {Pa}
  8,                                      ! Wind Speed {m/s}
  350,                                    ! Wind Direction {deg}
  0,                                      ! Sky Clearness
  0,                                      ! Rain Indicator
  0,                                      ! Snow Indicator
  21,                                     ! Day of Month
  1,                                      ! Month
  WinterDesignDay,                        ! Day Type
  0,                                      ! Daylight Saving Time Indicator
  Wetbulb,                                ! Humidity Indicating Type
  ,                                       ! Humidity Indicating Day Schedule Name
  DefaultMultipliers,                     ! Dry-Bulb Temperature Range Modifier Type
  ,                                       ! Dry-Bulb Temperature Range Modifier Schedule Name
  ASHRAEClearSky;                         ! Solar Model Indicator

OS:ComponentData,
  {426d14f5-f43b-4e85-aaa0-8ebe0a92b9b1}, ! Handle
  Component Data 1,                       ! Name
  {cc2bcc84-dce0-4053-95a1-793e83501579}, ! UUID
  {379454e8-058f-4a67-a797-006a23ca600b}, ! Version UUID
  1366308632,                             ! Creation Timestamp
  1366308632,                             ! Version Timestamp
  {09dd883b-5d7f-4333-ad59-38b0b4587e07}; ! Name of Object 1

