
OS:Version,
  {f1bc598b-2a69-4f6c-ad54-9b9842d8f487}, ! Handle
  0.9.3;                                  ! Version Identifier

OS:SizingPeriod:DesignDay,
  {77506ba2-17e5-4bde-9446-f60fcc56d598}, ! Handle
  CARIBOU Ann Clg 1% Condns DB=>MWB,      ! Name
  27.3,                                   ! Maximum Dry-Bulb Temperature {C}
  10.9,                                   ! Daily Dry-Bulb Temperature Range {deltaC}
  19.2,                                   ! Humidity Indicating Conditions at Maximum Dry-Bulb {BasedOnField A3}
  99063,                                  ! Barometric Pressure {Pa}
  4.3,                                    ! Wind Speed {m/s}
  250,                                    ! Wind Direction {deg}
  0,                                      ! Sky Clearness
  0,                                      ! Rain Indicator
  0,                                      ! Snow Indicator
  21,                                     ! Day of Month
  7,                                      ! Month
  SummerDesignDay,                        ! Day Type
  0,                                      ! Daylight Saving Time Indicator
  Wetbulb,                                ! Humidity Indicating Type
  ,                                       ! Humidity Indicating Day Schedule Name
  DefaultMultipliers,                     ! Dry-Bulb Temperature Range Modifier Type
  ,                                       ! Dry-Bulb Temperature Range Modifier Schedule Name
  ASHRAETau,                              ! Solar Model Indicator
  ,                                       ! Beam Solar Day Schedule Name
  ,                                       ! Diffuse Solar Day Schedule Name
  0.429,                                  ! ASHRAE Taub {dimensionless}
  2.106;                                  ! ASHRAE Taud {dimensionless}

OS:ComponentData,
  {4f4acda4-fbe4-4763-bbe2-7ff76b9976f6}, ! Handle
  Component Data 1,                       ! Name
  {1e71f85b-7d79-4432-ba07-f47005b086ad}, ! UUID
  {32ac50c5-831f-46c2-b807-49317161fe6d}, ! Version UUID
  1366307886,                             ! Creation Timestamp
  1366307886,                             ! Version Timestamp
  {77506ba2-17e5-4bde-9446-f60fcc56d598}; ! Name of Object 1

