
OS:Version,
  {22c556a0-91f8-478b-8bd5-c3cda051e2a6}, ! Handle
  0.9.3;                                  ! Version Identifier

OS:SizingPeriod:DesignDay,
  {22b4c455-5981-4a6d-93cd-899ec364e14e}, ! Handle
  ARCATA Ann Clg .4% Condns WB=>MDB,      ! Name
  19.5,                                   ! Maximum Dry-Bulb Temperature {C}
  6.5,                                    ! Daily Dry-Bulb Temperature Range {deltaC}
  16.8,                                   ! Humidity Indicating Conditions at Maximum Dry-Bulb {BasedOnField A3}
  100499,                                 ! Barometric Pressure {Pa}
  4.3,                                    ! Wind Speed {m/s}
  320,                                    ! Wind Direction {deg}
  0,                                      ! Sky Clearness
  0,                                      ! Rain Indicator
  0,                                      ! Snow Indicator
  21,                                     ! Day of Month
  8,                                      ! Month
  SummerDesignDay,                        ! Day Type
  0,                                      ! Daylight Saving Time Indicator
  Wetbulb,                                ! Humidity Indicating Type
  ,                                       ! Humidity Indicating Day Schedule Name
  DefaultMultipliers,                     ! Dry-Bulb Temperature Range Modifier Type
  ,                                       ! Dry-Bulb Temperature Range Modifier Schedule Name
  ASHRAETau,                              ! Solar Model Indicator
  ,                                       ! Beam Solar Day Schedule Name
  ,                                       ! Diffuse Solar Day Schedule Name
  0.365,                                  ! ASHRAE Taub {dimensionless}
  2.513;                                  ! ASHRAE Taud {dimensionless}

OS:ComponentData,
  {1a0b561e-564c-4910-b7f4-101fcd1e588c}, ! Handle
  Component Data 1,                       ! Name
  {fae75e75-6ef9-4b8f-ba7d-48548506e738}, ! UUID
  {60e79481-820a-4a73-9cc7-47e812fa1b38}, ! Version UUID
  1366306345,                             ! Creation Timestamp
  1366306345,                             ! Version Timestamp
  {22b4c455-5981-4a6d-93cd-899ec364e14e}; ! Name of Object 1

