
OS:Version,
  {23ad1850-4eb3-4a41-8bb2-c4b6b1bb1197}, ! Handle
  0.9.3;                                  ! Version Identifier

OS:SizingPeriod:DesignDay,
  {74620acf-f67b-4fce-bc55-0f3fb75856b9}, ! Handle
  GRAND_RAPIDS Ann Htg Wind 99.6% Condns WS=>MCDB, ! Name
  -2,                                     ! Maximum Dry-Bulb Temperature {C}
  0,                                      ! Daily Dry-Bulb Temperature Range {deltaC}
  -2,                                     ! Humidity Indicating Conditions at Maximum Dry-Bulb {BasedOnField A3}
  98416,                                  ! Barometric Pressure {Pa}
  12.7,                                   ! Wind Speed {m/s}
  200,                                    ! Wind Direction {deg}
  0,                                      ! Sky Clearness
  0,                                      ! Rain Indicator
  0,                                      ! Snow Indicator
  21,                                     ! Day of Month
  1,                                      ! Month
  WinterDesignDay,                        ! Day Type
  0,                                      ! Daylight Saving Time Indicator
  Wetbulb,                                ! Humidity Indicating Type
  ,                                       ! Humidity Indicating Day Schedule Name
  DefaultMultipliers,                     ! Dry-Bulb Temperature Range Modifier Type
  ,                                       ! Dry-Bulb Temperature Range Modifier Schedule Name
  ASHRAEClearSky;                         ! Solar Model Indicator

OS:ComponentData,
  {86bee5ae-dcb1-4a03-9fe1-a92be0fce9b5}, ! Handle
  Component Data 1,                       ! Name
  {8fce85e7-9109-420d-977f-b887d7a440b9}, ! UUID
  {c2732652-ff98-42e2-8139-85dad78e0b20}, ! Version UUID
  1366308017,                             ! Creation Timestamp
  1366308017,                             ! Version Timestamp
  {74620acf-f67b-4fce-bc55-0f3fb75856b9}; ! Name of Object 1

