
OS:Version,
  {60d62b27-e042-4f0a-9b30-093501e47b7a}, ! Handle
  0.9.3;                                  ! Version Identifier

OS:SizingPeriod:DesignDay,
  {0564ea42-5985-4b06-9b83-eea897045845}, ! Handle
  Harrisburg Ann Clg 1% Condns DB=>MWB,   ! Name
  32,                                     ! Maximum Dry-Bulb Temperature {C}
  10.8,                                   ! Daily Dry-Bulb Temperature Range {deltaC}
  22.5,                                   ! Humidity Indicating Conditions at Maximum Dry-Bulb {BasedOnField A3}
  100201,                                 ! Barometric Pressure {Pa}
  3.8,                                    ! Wind Speed {m/s}
  300,                                    ! Wind Direction {deg}
  0,                                      ! Sky Clearness
  0,                                      ! Rain Indicator
  0,                                      ! Snow Indicator
  21,                                     ! Day of Month
  7,                                      ! Month
  SummerDesignDay,                        ! Day Type
  0,                                      ! Daylight Saving Time Indicator
  Wetbulb,                                ! Humidity Indicating Type
  ,                                       ! Humidity Indicating Day Schedule Name
  DefaultMultipliers,                     ! Dry-Bulb Temperature Range Modifier Type
  ,                                       ! Dry-Bulb Temperature Range Modifier Schedule Name
  ASHRAETau,                              ! Solar Model Indicator
  ,                                       ! Beam Solar Day Schedule Name
  ,                                       ! Diffuse Solar Day Schedule Name
  0.519,                                  ! ASHRAE Taub {dimensionless}
  1.838;                                  ! ASHRAE Taud {dimensionless}

OS:ComponentData,
  {a39f09ab-07a6-40e6-8afb-7cbbecd5d4fa}, ! Handle
  Component Data 1,                       ! Name
  {87fb380d-d65d-44c4-abac-fabe7dad1ac1}, ! UUID
  {7ec61838-1ad3-43bf-b8c1-c84c6ddb43dc}, ! Version UUID
  1366310183,                             ! Creation Timestamp
  1366310183,                             ! Version Timestamp
  {0564ea42-5985-4b06-9b83-eea897045845}; ! Name of Object 1

