
OS:Version,
  {03083a7d-b929-44b5-b1e6-e04904394361}, ! Handle
  0.9.3;                                  ! Version Identifier

OS:SizingPeriod:DesignDay,
  {5c93fba4-2ad4-4fa3-a8d6-a46aed59ee1f}, ! Handle
  Cape Hatteras Nws Bldg Ann Clg 1% Condns Enth=>MDB, ! Name
  28.3,                                   ! Maximum Dry-Bulb Temperature {C}
  4.4,                                    ! Daily Dry-Bulb Temperature Range {deltaC}
  82000,                                  ! Humidity Indicating Conditions at Maximum Dry-Bulb {BasedOnField A3}
  101289,                                 ! Barometric Pressure {Pa}
  4.4,                                    ! Wind Speed {m/s}
  0,                                      ! Wind Direction {deg}
  0,                                      ! Sky Clearness
  0,                                      ! Rain Indicator
  0,                                      ! Snow Indicator
  21,                                     ! Day of Month
  7,                                      ! Month
  SummerDesignDay,                        ! Day Type
  0,                                      ! Daylight Saving Time Indicator
  Enthalpy,                               ! Humidity Indicating Type
  ,                                       ! Humidity Indicating Day Schedule Name
  DefaultMultipliers,                     ! Dry-Bulb Temperature Range Modifier Type
  ,                                       ! Dry-Bulb Temperature Range Modifier Schedule Name
  ASHRAETau,                              ! Solar Model Indicator
  ,                                       ! Beam Solar Day Schedule Name
  ,                                       ! Diffuse Solar Day Schedule Name
  0.57,                                   ! ASHRAE Taub {dimensionless}
  1.801;                                  ! ASHRAE Taud {dimensionless}

OS:ComponentData,
  {8f634a55-3bfa-4f3b-9b6b-4c090ae7d6ca}, ! Handle
  Component Data 1,                       ! Name
  {cde78c8b-bcca-4687-ab12-b07b10cce5dc}, ! UUID
  {976949ef-f2b9-4f14-97d9-6892d2c0b498}, ! Version UUID
  1366308881,                             ! Creation Timestamp
  1366308881,                             ! Version Timestamp
  {5c93fba4-2ad4-4fa3-a8d6-a46aed59ee1f}; ! Name of Object 1

