
OS:Version,
  {9a5b05eb-08f4-47e4-870c-ae5233b89e4f}, ! Handle
  0.9.3;                                  ! Version Identifier

OS:SizingPeriod:DesignDay,
  {4e9f01d2-fbb0-44a2-8553-8867f6c8308d}, ! Handle
  BARROW Ann Clg 1% Condns Enth=>MDB,     ! Name
  11.7,                                   ! Maximum Dry-Bulb Temperature {C}
  6.3,                                    ! Daily Dry-Bulb Temperature Range {deltaC}
  29100,                                  ! Humidity Indicating Conditions at Maximum Dry-Bulb {BasedOnField A3}
  101277,                                 ! Barometric Pressure {Pa}
  5.2,                                    ! Wind Speed {m/s}
  180,                                    ! Wind Direction {deg}
  0,                                      ! Sky Clearness
  0,                                      ! Rain Indicator
  0,                                      ! Snow Indicator
  21,                                     ! Day of Month
  7,                                      ! Month
  SummerDesignDay,                        ! Day Type
  0,                                      ! Daylight Saving Time Indicator
  Enthalpy,                               ! Humidity Indicating Type
  ,                                       ! Humidity Indicating Day Schedule Name
  DefaultMultipliers,                     ! Dry-Bulb Temperature Range Modifier Type
  ,                                       ! Dry-Bulb Temperature Range Modifier Schedule Name
  ASHRAETau,                              ! Solar Model Indicator
  ,                                       ! Beam Solar Day Schedule Name
  ,                                       ! Diffuse Solar Day Schedule Name
  0.344,                                  ! ASHRAE Taub {dimensionless}
  2.25;                                   ! ASHRAE Taud {dimensionless}

