
OS:Version,
  {52e03735-524f-499f-becc-49d47bc90e4f}, ! Handle
  0.9.3;                                  ! Version Identifier

OS:SizingPeriod:DesignDay,
  {eb3066ba-78ed-4f91-bbee-b190c7838c02}, ! Handle
  Austin Ann Clg 2% Condns WB=>MDB,       ! Name
  31.3,                                   ! Maximum Dry-Bulb Temperature {C}
  12.5,                                   ! Daily Dry-Bulb Temperature Range {deltaC}
  25.4,                                   ! Humidity Indicating Conditions at Maximum Dry-Bulb {BasedOnField A3}
  99075,                                  ! Barometric Pressure {Pa}
  3.7,                                    ! Wind Speed {m/s}
  190,                                    ! Wind Direction {deg}
  0,                                      ! Sky Clearness
  0,                                      ! Rain Indicator
  0,                                      ! Snow Indicator
  21,                                     ! Day of Month
  8,                                      ! Month
  SummerDesignDay,                        ! Day Type
  0,                                      ! Daylight Saving Time Indicator
  Wetbulb,                                ! Humidity Indicating Type
  ,                                       ! Humidity Indicating Day Schedule Name
  DefaultMultipliers,                     ! Dry-Bulb Temperature Range Modifier Type
  ,                                       ! Dry-Bulb Temperature Range Modifier Schedule Name
  ASHRAETau,                              ! Solar Model Indicator
  ,                                       ! Beam Solar Day Schedule Name
  ,                                       ! Diffuse Solar Day Schedule Name
  0.457,                                  ! ASHRAE Taub {dimensionless}
  2.114;                                  ! ASHRAE Taud {dimensionless}

OS:ComponentData,
  {f4d35bda-6d46-4bc8-83d7-1b9a8bb198d2}, ! Handle
  Component Data 1,                       ! Name
  {56719591-1edb-49fe-ad80-e6bdbad4f0e0}, ! UUID
  {75fa27e9-4060-4f34-b3af-783050771174}, ! Version UUID
  1366310582,                             ! Creation Timestamp
  1366310582,                             ! Version Timestamp
  {eb3066ba-78ed-4f91-bbee-b190c7838c02}; ! Name of Object 1

