
OS:Version,
  {7c2195a2-18bb-4108-b5d1-8afa18a99cb4}, ! Handle
  0.9.3;                                  ! Version Identifier

OS:SizingPeriod:DesignDay,
  {899a318c-6487-44de-ba85-91006c61d1c5}, ! Handle
  Huntsville Intl Jones Field Ann Htg 99% Condns DB, ! Name
  -5.8,                                   ! Maximum Dry-Bulb Temperature {C}
  0,                                      ! Daily Dry-Bulb Temperature Range {deltaC}
  -5.8,                                   ! Humidity Indicating Conditions at Maximum Dry-Bulb {BasedOnField A3}
  99063,                                  ! Barometric Pressure {Pa}
  3.8,                                    ! Wind Speed {m/s}
  340,                                    ! Wind Direction {deg}
  0,                                      ! Sky Clearness
  0,                                      ! Rain Indicator
  0,                                      ! Snow Indicator
  21,                                     ! Day of Month
  1,                                      ! Month
  WinterDesignDay,                        ! Day Type
  0,                                      ! Daylight Saving Time Indicator
  Wetbulb,                                ! Humidity Indicating Type
  ,                                       ! Humidity Indicating Day Schedule Name
  DefaultMultipliers,                     ! Dry-Bulb Temperature Range Modifier Type
  ,                                       ! Dry-Bulb Temperature Range Modifier Schedule Name
  ASHRAEClearSky;                         ! Solar Model Indicator

OS:ComponentData,
  {5eded232-7f44-478a-bb76-d84844a43d34}, ! Handle
  Component Data 1,                       ! Name
  {56832751-7f1f-40b9-ac4c-301f64f1b7ef}, ! UUID
  {6422da1e-8edc-4bd1-a55e-665bbf4e2ac4}, ! Version UUID
  1366305669,                             ! Creation Timestamp
  1366305669,                             ! Version Timestamp
  {899a318c-6487-44de-ba85-91006c61d1c5}; ! Name of Object 1

