
OS:Version,
  {384fec7f-8f98-4305-b2ef-15d2d17ea917}, ! Handle
  0.9.3;                                  ! Version Identifier

OS:SizingPeriod:DesignDay,
  {a79ba656-315e-45a0-9b6e-3a2176332721}, ! Handle
  Key West Intl Arpt Ann Clg 1% Condns Enth=>MDB, ! Name
  30.7,                                   ! Maximum Dry-Bulb Temperature {C}
  5.1,                                    ! Daily Dry-Bulb Temperature Range {deltaC}
  84400,                                  ! Humidity Indicating Conditions at Maximum Dry-Bulb {BasedOnField A3}
  101313,                                 ! Barometric Pressure {Pa}
  4,                                      ! Wind Speed {m/s}
  150,                                    ! Wind Direction {deg}
  0,                                      ! Sky Clearness
  0,                                      ! Rain Indicator
  0,                                      ! Snow Indicator
  21,                                     ! Day of Month
  8,                                      ! Month
  SummerDesignDay,                        ! Day Type
  0,                                      ! Daylight Saving Time Indicator
  Enthalpy,                               ! Humidity Indicating Type
  ,                                       ! Humidity Indicating Day Schedule Name
  DefaultMultipliers,                     ! Dry-Bulb Temperature Range Modifier Type
  ,                                       ! Dry-Bulb Temperature Range Modifier Schedule Name
  ASHRAETau,                              ! Solar Model Indicator
  ,                                       ! Beam Solar Day Schedule Name
  ,                                       ! Diffuse Solar Day Schedule Name
  0.461,                                  ! ASHRAE Taub {dimensionless}
  2.194;                                  ! ASHRAE Taud {dimensionless}

OS:ComponentData,
  {870a5053-917d-45ff-b08a-829b3f9f8116}, ! Handle
  Component Data 1,                       ! Name
  {dd510964-42ed-44f0-956a-c3222ed4dbdf}, ! UUID
  {16541aeb-9e8c-45a0-9010-64a312953ff0}, ! Version UUID
  1366306837,                             ! Creation Timestamp
  1366306837,                             ! Version Timestamp
  {a79ba656-315e-45a0-9b6e-3a2176332721}; ! Name of Object 1

