
OS:Version,
  {4a6ba684-443b-4e1c-9206-c523f98deda1}, ! Handle
  0.9.3;                                  ! Version Identifier

OS:SizingPeriod:DesignDay,
  {8a98b3e9-d0ae-4b87-9f16-bcfbead605b2}, ! Handle
  Chanute Martin Johnson Ap Ann Hum_n 99% Condns DP=>MCDB, ! Name
  -10.2,                                  ! Maximum Dry-Bulb Temperature {C}
  0,                                      ! Daily Dry-Bulb Temperature Range {deltaC}
  -16.3,                                  ! Humidity Indicating Conditions at Maximum Dry-Bulb {BasedOnField A3}
  97796,                                  ! Barometric Pressure {Pa}
  3.8,                                    ! Wind Speed {m/s}
  0,                                      ! Wind Direction {deg}
  0,                                      ! Sky Clearness
  0,                                      ! Rain Indicator
  0,                                      ! Snow Indicator
  21,                                     ! Day of Month
  1,                                      ! Month
  WinterDesignDay,                        ! Day Type
  0,                                      ! Daylight Saving Time Indicator
  Dewpoint,                               ! Humidity Indicating Type
  ,                                       ! Humidity Indicating Day Schedule Name
  DefaultMultipliers,                     ! Dry-Bulb Temperature Range Modifier Type
  ,                                       ! Dry-Bulb Temperature Range Modifier Schedule Name
  ASHRAEClearSky;                         ! Solar Model Indicator

OS:ComponentData,
  {63de15e6-0445-4d97-b249-3b4badfb3eeb}, ! Handle
  Component Data 1,                       ! Name
  {3c352995-cb7d-41af-b3e2-7f639d1f9f0a}, ! UUID
  {f9cfa6e6-79e5-4781-9c85-a95a420d3894}, ! Version UUID
  1366307496,                             ! Creation Timestamp
  1366307496,                             ! Version Timestamp
  {8a98b3e9-d0ae-4b87-9f16-bcfbead605b2}; ! Name of Object 1

