
OS:Version,
  {4b7bea4b-6e3b-41e5-8f8e-9f8929dfecb1}, ! Handle
  0.9.3;                                  ! Version Identifier

OS:SizingPeriod:DesignDay,
  {ff2027a9-ca16-46c5-b8d0-24e7ba44c8e4}, ! Handle
  Great Falls Intl Arpt Ann Clg 1% Condns WB=>MDB, ! Name
  27.9,                                   ! Maximum Dry-Bulb Temperature {C}
  16,                                     ! Daily Dry-Bulb Temperature Range {deltaC}
  16.9,                                   ! Humidity Indicating Conditions at Maximum Dry-Bulb {BasedOnField A3}
  88606,                                  ! Barometric Pressure {Pa}
  4.9,                                    ! Wind Speed {m/s}
  240,                                    ! Wind Direction {deg}
  0,                                      ! Sky Clearness
  0,                                      ! Rain Indicator
  0,                                      ! Snow Indicator
  21,                                     ! Day of Month
  7,                                      ! Month
  SummerDesignDay,                        ! Day Type
  0,                                      ! Daylight Saving Time Indicator
  Wetbulb,                                ! Humidity Indicating Type
  ,                                       ! Humidity Indicating Day Schedule Name
  DefaultMultipliers,                     ! Dry-Bulb Temperature Range Modifier Type
  ,                                       ! Dry-Bulb Temperature Range Modifier Schedule Name
  ASHRAETau,                              ! Solar Model Indicator
  ,                                       ! Beam Solar Day Schedule Name
  ,                                       ! Diffuse Solar Day Schedule Name
  0.383,                                  ! ASHRAE Taub {dimensionless}
  2.176;                                  ! ASHRAE Taud {dimensionless}

OS:ComponentData,
  {80d64d3e-db08-4b84-8fe9-a58a7194d7e5}, ! Handle
  Component Data 1,                       ! Name
  {b283f091-b30b-421c-9d02-b58cb6c7feb0}, ! UUID
  {c4f0a6fb-7edc-4e3a-86da-243cc95eddc9}, ! Version UUID
  1366308781,                             ! Creation Timestamp
  1366308781,                             ! Version Timestamp
  {ff2027a9-ca16-46c5-b8d0-24e7ba44c8e4}; ! Name of Object 1

