
OS:Version,
  {4b5ed5da-14b6-445a-a117-306cc38fb4b2}, ! Handle
  0.9.3;                                  ! Version Identifier

OS:SizingPeriod:DesignDay,
  {97b5a81a-4e54-4102-9ef1-7b93d5645723}, ! Handle
  Iliamna Arpt Ann Clg 1% Condns Enth=>MDB, ! Name
  18.3,                                   ! Maximum Dry-Bulb Temperature {C}
  7,                                      ! Daily Dry-Bulb Temperature Range {deltaC}
  40200,                                  ! Humidity Indicating Conditions at Maximum Dry-Bulb {BasedOnField A3}
  100642,                                 ! Barometric Pressure {Pa}
  4.3,                                    ! Wind Speed {m/s}
  210,                                    ! Wind Direction {deg}
  0,                                      ! Sky Clearness
  0,                                      ! Rain Indicator
  0,                                      ! Snow Indicator
  21,                                     ! Day of Month
  7,                                      ! Month
  SummerDesignDay,                        ! Day Type
  0,                                      ! Daylight Saving Time Indicator
  Enthalpy,                               ! Humidity Indicating Type
  ,                                       ! Humidity Indicating Day Schedule Name
  DefaultMultipliers,                     ! Dry-Bulb Temperature Range Modifier Type
  ,                                       ! Dry-Bulb Temperature Range Modifier Schedule Name
  ASHRAETau,                              ! Solar Model Indicator
  ,                                       ! Beam Solar Day Schedule Name
  ,                                       ! Diffuse Solar Day Schedule Name
  0.384,                                  ! ASHRAE Taub {dimensionless}
  2.215;                                  ! ASHRAE Taud {dimensionless}

OS:ComponentData,
  {8a20d63b-ddf1-4904-9cfd-67ab8b476a37}, ! Handle
  Component Data 1,                       ! Name
  {5b060882-8a48-477b-ac34-d79b809f295f}, ! UUID
  {ffa9a550-9c24-4863-9c39-5d86e5a936fa}, ! Version UUID
  1366305327,                             ! Creation Timestamp
  1366305327,                             ! Version Timestamp
  {97b5a81a-4e54-4102-9ef1-7b93d5645723}; ! Name of Object 1

