
OS:Version,
  {7d9e0d0a-5388-4be2-b7e2-15edd2a15d5c}, ! Handle
  0.9.3;                                  ! Version Identifier

OS:SizingPeriod:DesignDay,
  {e518ffe9-55f3-488d-8858-5532fc117827}, ! Handle
  Daytona Beach Ann Htg Wind 99% Condns WS=>MCDB, ! Name
  15.3,                                   ! Maximum Dry-Bulb Temperature {C}
  0,                                      ! Daily Dry-Bulb Temperature Range {deltaC}
  15.3,                                   ! Humidity Indicating Conditions at Maximum Dry-Bulb {BasedOnField A3}
  101193,                                 ! Barometric Pressure {Pa}
  9.3,                                    ! Wind Speed {m/s}
  310,                                    ! Wind Direction {deg}
  0,                                      ! Sky Clearness
  0,                                      ! Rain Indicator
  0,                                      ! Snow Indicator
  21,                                     ! Day of Month
  1,                                      ! Month
  WinterDesignDay,                        ! Day Type
  0,                                      ! Daylight Saving Time Indicator
  Wetbulb,                                ! Humidity Indicating Type
  ,                                       ! Humidity Indicating Day Schedule Name
  DefaultMultipliers,                     ! Dry-Bulb Temperature Range Modifier Type
  ,                                       ! Dry-Bulb Temperature Range Modifier Schedule Name
  ASHRAEClearSky;                         ! Solar Model Indicator

OS:ComponentData,
  {3ac3d121-1d20-4807-bdef-f68a76f238ad}, ! Handle
  Component Data 1,                       ! Name
  {7465ad92-a71a-43e1-8c77-d094b215f4f8}, ! UUID
  {e5e460d3-62b9-4d05-aee5-77d0d20fa056}, ! Version UUID
  1366306790,                             ! Creation Timestamp
  1366306790,                             ! Version Timestamp
  {e518ffe9-55f3-488d-8858-5532fc117827}; ! Name of Object 1

