
OS:Version,
  {ff2839c4-9fcb-4dfa-9dfc-3be280f43c5a}, ! Handle
  0.9.3;                                  ! Version Identifier

OS:SizingPeriod:DesignDay,
  {961e3c21-7f74-463f-a00b-8362269149c3}, ! Handle
  Chanute Martin Johnson Ap Ann Clg .4% Condns DB=>MWB, ! Name
  36.9,                                   ! Maximum Dry-Bulb Temperature {C}
  11.4,                                   ! Daily Dry-Bulb Temperature Range {deltaC}
  24.1,                                   ! Humidity Indicating Conditions at Maximum Dry-Bulb {BasedOnField A3}
  97796,                                  ! Barometric Pressure {Pa}
  5.5,                                    ! Wind Speed {m/s}
  190,                                    ! Wind Direction {deg}
  0,                                      ! Sky Clearness
  0,                                      ! Rain Indicator
  0,                                      ! Snow Indicator
  21,                                     ! Day of Month
  7,                                      ! Month
  SummerDesignDay,                        ! Day Type
  0,                                      ! Daylight Saving Time Indicator
  Wetbulb,                                ! Humidity Indicating Type
  ,                                       ! Humidity Indicating Day Schedule Name
  DefaultMultipliers,                     ! Dry-Bulb Temperature Range Modifier Type
  ,                                       ! Dry-Bulb Temperature Range Modifier Schedule Name
  ASHRAETau,                              ! Solar Model Indicator
  ,                                       ! Beam Solar Day Schedule Name
  ,                                       ! Diffuse Solar Day Schedule Name
  0.434,                                  ! ASHRAE Taub {dimensionless}
  2.169;                                  ! ASHRAE Taud {dimensionless}

OS:ComponentData,
  {5af3789c-2ee3-436f-a8da-012824c39d4d}, ! Handle
  Component Data 1,                       ! Name
  {ff942c77-52dc-4717-af0a-94d5a5459c2e}, ! UUID
  {7d6f6070-d1ef-4062-ae50-d2c60d0c3256}, ! Version UUID
  1366307496,                             ! Creation Timestamp
  1366307496,                             ! Version Timestamp
  {961e3c21-7f74-463f-a00b-8362269149c3}; ! Name of Object 1

