
OS:Version,
  {6040fc37-936b-4234-bba8-aec0f2d62bc6}, ! Handle
  0.9.3;                                  ! Version Identifier

OS:SizingPeriod:DesignDay,
  {d7fda5ae-0860-40df-bc7e-f5e19902a402}, ! Handle
  Lubbock/Int'l Arpt Ann Clg 1% Condns DP=>MDB, ! Name
  24.5,                                   ! Maximum Dry-Bulb Temperature {C}
  13.1,                                   ! Daily Dry-Bulb Temperature Range {deltaC}
  20.1,                                   ! Humidity Indicating Conditions at Maximum Dry-Bulb {BasedOnField A3}
  90005,                                  ! Barometric Pressure {Pa}
  6.4,                                    ! Wind Speed {m/s}
  170,                                    ! Wind Direction {deg}
  0,                                      ! Sky Clearness
  0,                                      ! Rain Indicator
  0,                                      ! Snow Indicator
  21,                                     ! Day of Month
  7,                                      ! Month
  SummerDesignDay,                        ! Day Type
  0,                                      ! Daylight Saving Time Indicator
  Dewpoint,                               ! Humidity Indicating Type
  ,                                       ! Humidity Indicating Day Schedule Name
  DefaultMultipliers,                     ! Dry-Bulb Temperature Range Modifier Type
  ,                                       ! Dry-Bulb Temperature Range Modifier Schedule Name
  ASHRAETau,                              ! Solar Model Indicator
  ,                                       ! Beam Solar Day Schedule Name
  ,                                       ! Diffuse Solar Day Schedule Name
  0.396,                                  ! ASHRAE Taub {dimensionless}
  2.241;                                  ! ASHRAE Taud {dimensionless}

OS:ComponentData,
  {18b4c077-547d-43f3-a614-9fe54d824006}, ! Handle
  Component Data 1,                       ! Name
  {0997bf89-6e4d-4223-9c63-e423d631aaf9}, ! UUID
  {f241f7c6-5a7e-46b5-87bb-91bd46b6966b}, ! Version UUID
  1366310796,                             ! Creation Timestamp
  1366310796,                             ! Version Timestamp
  {d7fda5ae-0860-40df-bc7e-f5e19902a402}; ! Name of Object 1

