
OS:Version,
  {aa91f8c8-5dbc-42cc-9e37-dc3afb09adb6}, ! Handle
  0.9.3;                                  ! Version Identifier

OS:SizingPeriod:DesignDay,
  {67e11d87-c31c-4b92-9e47-7c49c9e29364}, ! Handle
  Columbus Port Columbus Intl A Ann Clg .4% Condns Enth=>MDB, ! Name
  30.6,                                   ! Maximum Dry-Bulb Temperature {C}
  10.5,                                   ! Daily Dry-Bulb Temperature Range {deltaC}
  76300,                                  ! Humidity Indicating Conditions at Maximum Dry-Bulb {BasedOnField A3}
  98393,                                  ! Barometric Pressure {Pa}
  4.3,                                    ! Wind Speed {m/s}
  240,                                    ! Wind Direction {deg}
  0,                                      ! Sky Clearness
  0,                                      ! Rain Indicator
  0,                                      ! Snow Indicator
  21,                                     ! Day of Month
  7,                                      ! Month
  SummerDesignDay,                        ! Day Type
  0,                                      ! Daylight Saving Time Indicator
  Enthalpy,                               ! Humidity Indicating Type
  ,                                       ! Humidity Indicating Day Schedule Name
  DefaultMultipliers,                     ! Dry-Bulb Temperature Range Modifier Type
  ,                                       ! Dry-Bulb Temperature Range Modifier Schedule Name
  ASHRAETau,                              ! Solar Model Indicator
  ,                                       ! Beam Solar Day Schedule Name
  ,                                       ! Diffuse Solar Day Schedule Name
  0.484,                                  ! ASHRAE Taub {dimensionless}
  1.943;                                  ! ASHRAE Taud {dimensionless}

OS:ComponentData,
  {46c94444-9d24-4779-a8d8-988ebd78bcd9}, ! Handle
  Component Data 1,                       ! Name
  {e33a6071-c83a-4137-90fb-a467f7eb180c}, ! UUID
  {62194086-f2a6-47ba-95e7-560718e81040}, ! Version UUID
  1366309799,                             ! Creation Timestamp
  1366309799,                             ! Version Timestamp
  {67e11d87-c31c-4b92-9e47-7c49c9e29364}; ! Name of Object 1

