
OS:Version,
  {101f5626-f281-4f7b-b5b9-869ee6da18cb}, ! Handle
  0.9.3;                                  ! Version Identifier

OS:SizingPeriod:DesignDay,
  {29eeb961-0cc8-4393-9251-da54f7ef0c71}, ! Handle
  ABILENE Ann Clg 1% Condns DP=>MDB,      ! Name
  26.3,                                   ! Maximum Dry-Bulb Temperature {C}
  11.6,                                   ! Daily Dry-Bulb Temperature Range {deltaC}
  21.6,                                   ! Humidity Indicating Conditions at Maximum Dry-Bulb {BasedOnField A3}
  95072,                                  ! Barometric Pressure {Pa}
  5.3,                                    ! Wind Speed {m/s}
  160,                                    ! Wind Direction {deg}
  0,                                      ! Sky Clearness
  0,                                      ! Rain Indicator
  0,                                      ! Snow Indicator
  21,                                     ! Day of Month
  7,                                      ! Month
  SummerDesignDay,                        ! Day Type
  0,                                      ! Daylight Saving Time Indicator
  Dewpoint,                               ! Humidity Indicating Type
  ,                                       ! Humidity Indicating Day Schedule Name
  DefaultMultipliers,                     ! Dry-Bulb Temperature Range Modifier Type
  ,                                       ! Dry-Bulb Temperature Range Modifier Schedule Name
  ASHRAETau,                              ! Solar Model Indicator
  ,                                       ! Beam Solar Day Schedule Name
  ,                                       ! Diffuse Solar Day Schedule Name
  0.426,                                  ! ASHRAE Taub {dimensionless}
  2.172;                                  ! ASHRAE Taud {dimensionless}

OS:ComponentData,
  {32bbd76d-6fe1-4bc4-ae3b-efc2880526dd}, ! Handle
  Component Data 1,                       ! Name
  {db923fbd-e5a3-4d38-873c-f23dc4c7c10d}, ! UUID
  {203e8f2d-ba73-463e-ac45-b38b6b258b29}, ! Version UUID
  1366310551,                             ! Creation Timestamp
  1366310551,                             ! Version Timestamp
  {29eeb961-0cc8-4393-9251-da54f7ef0c71}; ! Name of Object 1

