
OS:Version,
  {27c1aa97-8aff-4d3d-a0f2-04a313747056}, ! Handle
  0.9.3;                                  ! Version Identifier

OS:SizingPeriod:DesignDay,
  {bb62607f-e074-4f9c-b0ed-1b4f8fd3ce12}, ! Handle
  Concordia Blosser Muni Ap Ann Clg .4% Condns DP=>MDB, ! Name
  28.8,                                   ! Maximum Dry-Bulb Temperature {C}
  12.3,                                   ! Daily Dry-Bulb Temperature Range {deltaC}
  23.3,                                   ! Humidity Indicating Conditions at Maximum Dry-Bulb {BasedOnField A3}
  96058,                                  ! Barometric Pressure {Pa}
  6.6,                                    ! Wind Speed {m/s}
  180,                                    ! Wind Direction {deg}
  0,                                      ! Sky Clearness
  0,                                      ! Rain Indicator
  0,                                      ! Snow Indicator
  21,                                     ! Day of Month
  7,                                      ! Month
  SummerDesignDay,                        ! Day Type
  0,                                      ! Daylight Saving Time Indicator
  Dewpoint,                               ! Humidity Indicating Type
  ,                                       ! Humidity Indicating Day Schedule Name
  DefaultMultipliers,                     ! Dry-Bulb Temperature Range Modifier Type
  ,                                       ! Dry-Bulb Temperature Range Modifier Schedule Name
  ASHRAETau,                              ! Solar Model Indicator
  ,                                       ! Beam Solar Day Schedule Name
  ,                                       ! Diffuse Solar Day Schedule Name
  0.417,                                  ! ASHRAE Taub {dimensionless}
  2.193;                                  ! ASHRAE Taud {dimensionless}

OS:ComponentData,
  {2505bb03-d0b0-4274-b003-f4896d8be868}, ! Handle
  Component Data 1,                       ! Name
  {4920ba19-ca06-4dad-9153-d236b26bef92}, ! UUID
  {9779f9a7-93b9-4922-b92d-6394a6f889d5}, ! Version UUID
  1366307502,                             ! Creation Timestamp
  1366307502,                             ! Version Timestamp
  {bb62607f-e074-4f9c-b0ed-1b4f8fd3ce12}; ! Name of Object 1

