
OS:Version,
  {bca2e29d-af6b-4082-b669-f12db21a7028}, ! Handle
  0.9.3;                                  ! Version Identifier

OS:SizingPeriod:DesignDay,
  {3e315ee0-77c3-486b-93e5-2b51333a130f}, ! Handle
  Cut Bank Ann Htg Wind 99% Condns WS=>MCDB, ! Name
  5,                                      ! Maximum Dry-Bulb Temperature {C}
  0,                                      ! Daily Dry-Bulb Temperature Range {deltaC}
  5,                                      ! Humidity Indicating Conditions at Maximum Dry-Bulb {BasedOnField A3}
  87983,                                  ! Barometric Pressure {Pa}
  20.1,                                   ! Wind Speed {m/s}
  350,                                    ! Wind Direction {deg}
  0,                                      ! Sky Clearness
  0,                                      ! Rain Indicator
  0,                                      ! Snow Indicator
  21,                                     ! Day of Month
  1,                                      ! Month
  WinterDesignDay,                        ! Day Type
  0,                                      ! Daylight Saving Time Indicator
  Wetbulb,                                ! Humidity Indicating Type
  ,                                       ! Humidity Indicating Day Schedule Name
  DefaultMultipliers,                     ! Dry-Bulb Temperature Range Modifier Type
  ,                                       ! Dry-Bulb Temperature Range Modifier Schedule Name
  ASHRAEClearSky;                         ! Solar Model Indicator

