
OS:Version,
  {d03e65ab-5943-4567-be5d-7ca6a2a080fc}, ! Handle
  0.9.3;                                  ! Version Identifier

OS:SizingPeriod:DesignDay,
  {53cc3961-eba0-4ad0-9508-08a70c171c4f}, ! Handle
  Ely Yelland Field Ann Clg .4% Condns WB=>MDB, ! Name
  26.7,                                   ! Maximum Dry-Bulb Temperature {C}
  20.3,                                   ! Daily Dry-Bulb Temperature Range {deltaC}
  15.9,                                   ! Humidity Indicating Conditions at Maximum Dry-Bulb {BasedOnField A3}
  80397,                                  ! Barometric Pressure {Pa}
  5.3,                                    ! Wind Speed {m/s}
  220,                                    ! Wind Direction {deg}
  0,                                      ! Sky Clearness
  0,                                      ! Rain Indicator
  0,                                      ! Snow Indicator
  21,                                     ! Day of Month
  7,                                      ! Month
  SummerDesignDay,                        ! Day Type
  0,                                      ! Daylight Saving Time Indicator
  Wetbulb,                                ! Humidity Indicating Type
  ,                                       ! Humidity Indicating Day Schedule Name
  DefaultMultipliers,                     ! Dry-Bulb Temperature Range Modifier Type
  ,                                       ! Dry-Bulb Temperature Range Modifier Schedule Name
  ASHRAETau,                              ! Solar Model Indicator
  ,                                       ! Beam Solar Day Schedule Name
  ,                                       ! Diffuse Solar Day Schedule Name
  0.442,                                  ! ASHRAE Taub {dimensionless}
  1.871;                                  ! ASHRAE Taud {dimensionless}

OS:ComponentData,
  {f5a1737d-9a9f-4224-83fb-8b37683b3df3}, ! Handle
  Component Data 1,                       ! Name
  {bef106a2-d994-4f91-b92e-c11c173a1c60}, ! UUID
  {106a0eee-db1f-4ac2-8461-78a837e84fed}, ! Version UUID
  1366309477,                             ! Creation Timestamp
  1366309477,                             ! Version Timestamp
  {53cc3961-eba0-4ad0-9508-08a70c171c4f}; ! Name of Object 1

