
OS:Version,
  {d4c63e9f-79e7-4dbd-8c53-798f4e5bc7a2}, ! Handle
  0.9.3;                                  ! Version Identifier

OS:SizingPeriod:DesignDay,
  {d5523b6a-e117-4d88-8f51-09c13dd2b632}, ! Handle
  Abilene Dyess Afb Ann Clg 1% Condns WB=>MDB, ! Name
  32.2,                                   ! Maximum Dry-Bulb Temperature {C}
  12.4,                                   ! Daily Dry-Bulb Temperature Range {deltaC}
  24.3,                                   ! Humidity Indicating Conditions at Maximum Dry-Bulb {BasedOnField A3}
  94947,                                  ! Barometric Pressure {Pa}
  4.5,                                    ! Wind Speed {m/s}
  170,                                    ! Wind Direction {deg}
  0,                                      ! Sky Clearness
  0,                                      ! Rain Indicator
  0,                                      ! Snow Indicator
  21,                                     ! Day of Month
  7,                                      ! Month
  SummerDesignDay,                        ! Day Type
  0,                                      ! Daylight Saving Time Indicator
  Wetbulb,                                ! Humidity Indicating Type
  ,                                       ! Humidity Indicating Day Schedule Name
  DefaultMultipliers,                     ! Dry-Bulb Temperature Range Modifier Type
  ,                                       ! Dry-Bulb Temperature Range Modifier Schedule Name
  ASHRAETau,                              ! Solar Model Indicator
  ,                                       ! Beam Solar Day Schedule Name
  ,                                       ! Diffuse Solar Day Schedule Name
  0.427,                                  ! ASHRAE Taub {dimensionless}
  2.168;                                  ! ASHRAE Taud {dimensionless}

OS:ComponentData,
  {565217a7-a23f-48bf-b91f-41dfacbdb5d9}, ! Handle
  Component Data 1,                       ! Name
  {36675986-a775-41f1-b6c4-24d34a8e1d86}, ! UUID
  {e2c5d3fd-348f-471b-9624-72db6c437d23}, ! Version UUID
  1366310547,                             ! Creation Timestamp
  1366310547,                             ! Version Timestamp
  {d5523b6a-e117-4d88-8f51-09c13dd2b632}; ! Name of Object 1

