
OS:Version,
  {b8e47e0e-49f8-450d-8c64-3ec822589b86}, ! Handle
  0.9.3;                                  ! Version Identifier

OS:SizingPeriod:DesignDay,
  {7d9fa8f6-f06f-44a9-a866-44454cb4f9f6}, ! Handle
  AKRON Ann Htg Wind 99.6% Condns WS=>MCDB, ! Name
  -1.3,                                   ! Maximum Dry-Bulb Temperature {C}
  0,                                      ! Daily Dry-Bulb Temperature Range {deltaC}
  -1.3,                                   ! Humidity Indicating Conditions at Maximum Dry-Bulb {BasedOnField A3}
  96877,                                  ! Barometric Pressure {Pa}
  12,                                     ! Wind Speed {m/s}
  240,                                    ! Wind Direction {deg}
  0,                                      ! Sky Clearness
  0,                                      ! Rain Indicator
  0,                                      ! Snow Indicator
  21,                                     ! Day of Month
  1,                                      ! Month
  WinterDesignDay,                        ! Day Type
  0,                                      ! Daylight Saving Time Indicator
  Wetbulb,                                ! Humidity Indicating Type
  ,                                       ! Humidity Indicating Day Schedule Name
  DefaultMultipliers,                     ! Dry-Bulb Temperature Range Modifier Type
  ,                                       ! Dry-Bulb Temperature Range Modifier Schedule Name
  ASHRAEClearSky;                         ! Solar Model Indicator

OS:ComponentData,
  {cae0c29d-27e5-4471-a256-3a44db4b50d7}, ! Handle
  Component Data 1,                       ! Name
  {966dfc43-c0bc-480d-bae8-c67da5e28e65}, ! UUID
  {184ceb8d-2fe3-4546-bf1a-74e230c7a612}, ! Version UUID
  1366309760,                             ! Creation Timestamp
  1366309760,                             ! Version Timestamp
  {7d9fa8f6-f06f-44a9-a866-44454cb4f9f6}; ! Name of Object 1

