
OS:Version,
  {7ee3ba69-65f7-47bc-82bb-35f9be6d9018}, ! Handle
  0.9.3;                                  ! Version Identifier

OS:SizingPeriod:DesignDay,
  {6bea9fcd-02eb-4d8c-92e2-c043b6c02f08}, ! Handle
  Lompoc  Awos Ann Clg 2% Condns DB=>MWB, ! Name
  23.2,                                   ! Maximum Dry-Bulb Temperature {C}
  8.9,                                    ! Daily Dry-Bulb Temperature Range {deltaC}
  15.9,                                   ! Humidity Indicating Conditions at Maximum Dry-Bulb {BasedOnField A3}
  101001,                                 ! Barometric Pressure {Pa}
  4.8,                                    ! Wind Speed {m/s}
  270,                                    ! Wind Direction {deg}
  0,                                      ! Sky Clearness
  0,                                      ! Rain Indicator
  0,                                      ! Snow Indicator
  21,                                     ! Day of Month
  8,                                      ! Month
  SummerDesignDay,                        ! Day Type
  0,                                      ! Daylight Saving Time Indicator
  Wetbulb,                                ! Humidity Indicating Type
  ,                                       ! Humidity Indicating Day Schedule Name
  DefaultMultipliers,                     ! Dry-Bulb Temperature Range Modifier Type
  ,                                       ! Dry-Bulb Temperature Range Modifier Schedule Name
  ASHRAETau,                              ! Solar Model Indicator
  ,                                       ! Beam Solar Day Schedule Name
  ,                                       ! Diffuse Solar Day Schedule Name
  0.369,                                  ! ASHRAE Taub {dimensionless}
  2.427;                                  ! ASHRAE Taud {dimensionless}

OS:ComponentData,
  {f343ac29-f601-4ebb-9f02-9aac5e6d7448}, ! Handle
  Component Data 1,                       ! Name
  {c79734df-76bb-492c-933e-659de9c31c66}, ! UUID
  {28c7fd96-b3ca-43c1-b6ff-6b59cb0f6174}, ! Version UUID
  1366306466,                             ! Creation Timestamp
  1366306466,                             ! Version Timestamp
  {6bea9fcd-02eb-4d8c-92e2-c043b6c02f08}; ! Name of Object 1

