
OS:Version,
  {051d49db-b694-4dc8-8edc-8f9852c750fc}, ! Handle
  0.9.3;                                  ! Version Identifier

OS:SizingPeriod:DesignDay,
  {f0871210-9721-43e3-afcf-dded7d99cf28}, ! Handle
  Augusta Bush Field Ann Clg .4% Condns DB=>MWB, ! Name
  36.2,                                   ! Maximum Dry-Bulb Temperature {C}
  11.7,                                   ! Daily Dry-Bulb Temperature Range {deltaC}
  24.6,                                   ! Humidity Indicating Conditions at Maximum Dry-Bulb {BasedOnField A3}
  100845,                                 ! Barometric Pressure {Pa}
  3.8,                                    ! Wind Speed {m/s}
  240,                                    ! Wind Direction {deg}
  0,                                      ! Sky Clearness
  0,                                      ! Rain Indicator
  0,                                      ! Snow Indicator
  21,                                     ! Day of Month
  7,                                      ! Month
  SummerDesignDay,                        ! Day Type
  0,                                      ! Daylight Saving Time Indicator
  Wetbulb,                                ! Humidity Indicating Type
  ,                                       ! Humidity Indicating Day Schedule Name
  DefaultMultipliers,                     ! Dry-Bulb Temperature Range Modifier Type
  ,                                       ! Dry-Bulb Temperature Range Modifier Schedule Name
  ASHRAETau,                              ! Solar Model Indicator
  ,                                       ! Beam Solar Day Schedule Name
  ,                                       ! Diffuse Solar Day Schedule Name
  0.559,                                  ! ASHRAE Taub {dimensionless}
  1.788;                                  ! ASHRAE Taud {dimensionless}

OS:ComponentData,
  {75c1c4c2-1f53-4353-a603-0b93b139ef80}, ! Handle
  Component Data 1,                       ! Name
  {9e86c379-f1de-4a0c-aa4e-41e19e8e944f}, ! UUID
  {d6fe7309-9925-4a3b-b2a0-af7b36330d48}, ! Version UUID
  1366306988,                             ! Creation Timestamp
  1366306988,                             ! Version Timestamp
  {f0871210-9721-43e3-afcf-dded7d99cf28}; ! Name of Object 1

