
OS:Version,
  {3aecc5a4-3147-4fa9-bea9-fb575f8eab35}, ! Handle
  0.9.3;                                  ! Version Identifier

OS:SizingPeriod:DesignDay,
  {2798e3a1-2184-4ab1-9d42-474f0e327a58}, ! Handle
  CHEYENNE Ann Clg 1% Condns DB=>MWB,     ! Name
  30.2,                                   ! Maximum Dry-Bulb Temperature {C}
  14.6,                                   ! Daily Dry-Bulb Temperature Range {deltaC}
  14.4,                                   ! Humidity Indicating Conditions at Maximum Dry-Bulb {BasedOnField A3}
  80767,                                  ! Barometric Pressure {Pa}
  5.3,                                    ! Wind Speed {m/s}
  170,                                    ! Wind Direction {deg}
  0,                                      ! Sky Clearness
  0,                                      ! Rain Indicator
  0,                                      ! Snow Indicator
  21,                                     ! Day of Month
  7,                                      ! Month
  SummerDesignDay,                        ! Day Type
  0,                                      ! Daylight Saving Time Indicator
  Wetbulb,                                ! Humidity Indicating Type
  ,                                       ! Humidity Indicating Day Schedule Name
  DefaultMultipliers,                     ! Dry-Bulb Temperature Range Modifier Type
  ,                                       ! Dry-Bulb Temperature Range Modifier Schedule Name
  ASHRAETau,                              ! Solar Model Indicator
  ,                                       ! Beam Solar Day Schedule Name
  ,                                       ! Diffuse Solar Day Schedule Name
  0.404,                                  ! ASHRAE Taub {dimensionless}
  2.038;                                  ! ASHRAE Taud {dimensionless}

