
OS:Version,
  {8b357188-0de1-49cc-8f15-c14b4171650c}, ! Handle
  0.9.3;                                  ! Version Identifier

OS:SizingPeriod:DesignDay,
  {7f228598-4add-4ea8-a1ae-4f122fa90d7d}, ! Handle
  Houghton Lake Roscommon Co Ar Ann Clg .4% Condns Enth=>MDB, ! Name
  28.7,                                   ! Maximum Dry-Bulb Temperature {C}
  12.8,                                   ! Daily Dry-Bulb Temperature Range {deltaC}
  72200,                                  ! Humidity Indicating Conditions at Maximum Dry-Bulb {BasedOnField A3}
  97179,                                  ! Barometric Pressure {Pa}
  4.2,                                    ! Wind Speed {m/s}
  240,                                    ! Wind Direction {deg}
  0,                                      ! Sky Clearness
  0,                                      ! Rain Indicator
  0,                                      ! Snow Indicator
  21,                                     ! Day of Month
  7,                                      ! Month
  SummerDesignDay,                        ! Day Type
  0,                                      ! Daylight Saving Time Indicator
  Enthalpy,                               ! Humidity Indicating Type
  ,                                       ! Humidity Indicating Day Schedule Name
  DefaultMultipliers,                     ! Dry-Bulb Temperature Range Modifier Type
  ,                                       ! Dry-Bulb Temperature Range Modifier Schedule Name
  ASHRAETau,                              ! Solar Model Indicator
  ,                                       ! Beam Solar Day Schedule Name
  ,                                       ! Diffuse Solar Day Schedule Name
  0.413,                                  ! ASHRAE Taub {dimensionless}
  2.189;                                  ! ASHRAE Taud {dimensionless}

OS:ComponentData,
  {f428ca12-ffc0-4ace-880e-bd7f552d5946}, ! Handle
  Component Data 1,                       ! Name
  {d918ba34-7f69-45ed-b722-9fc43de933ff}, ! UUID
  {9d52675e-0043-43d6-947b-3d828665155a}, ! Version UUID
  1366308027,                             ! Creation Timestamp
  1366308027,                             ! Version Timestamp
  {7f228598-4add-4ea8-a1ae-4f122fa90d7d}; ! Name of Object 1

