
OS:Version,
  {ddef5d8a-0c89-452b-ac88-0f755ed1b2c5}, ! Handle
  0.9.3;                                  ! Version Identifier

OS:SizingPeriod:DesignDay,
  {2926fb37-4056-49cb-bc1b-a4ccae516384}, ! Handle
  Altus Afb Ann Clg 2% Condns DB=>MWB,    ! Name
  36.9,                                   ! Maximum Dry-Bulb Temperature {C}
  13.4,                                   ! Daily Dry-Bulb Temperature Range {deltaC}
  23.2,                                   ! Humidity Indicating Conditions at Maximum Dry-Bulb {BasedOnField A3}
  96449,                                  ! Barometric Pressure {Pa}
  4.8,                                    ! Wind Speed {m/s}
  160,                                    ! Wind Direction {deg}
  0,                                      ! Sky Clearness
  0,                                      ! Rain Indicator
  0,                                      ! Snow Indicator
  21,                                     ! Day of Month
  7,                                      ! Month
  SummerDesignDay,                        ! Day Type
  0,                                      ! Daylight Saving Time Indicator
  Wetbulb,                                ! Humidity Indicating Type
  ,                                       ! Humidity Indicating Day Schedule Name
  DefaultMultipliers,                     ! Dry-Bulb Temperature Range Modifier Type
  ,                                       ! Dry-Bulb Temperature Range Modifier Schedule Name
  ASHRAETau,                              ! Solar Model Indicator
  ,                                       ! Beam Solar Day Schedule Name
  ,                                       ! Diffuse Solar Day Schedule Name
  0.426,                                  ! ASHRAE Taub {dimensionless}
  2.183;                                  ! ASHRAE Taud {dimensionless}

OS:ComponentData,
  {d756be60-cab2-4244-8c17-a5ef2292d477}, ! Handle
  Component Data 1,                       ! Name
  {242dd8be-3102-498e-a65b-c7ab0b80ef77}, ! UUID
  {e9d3b469-11bb-47c1-9095-61ffeee46c9b}, ! Version UUID
  1366309878,                             ! Creation Timestamp
  1366309878,                             ! Version Timestamp
  {2926fb37-4056-49cb-bc1b-a4ccae516384}; ! Name of Object 1

