
OS:Version,
  {06663f98-0d53-4ce0-a04d-437349694425}, ! Handle
  0.9.3;                                  ! Version Identifier

OS:SizingPeriod:DesignDay,
  {2fff66d5-0db3-478b-a9ab-e3bc1090c0f7}, ! Handle
  Douglas Bisbee Douglas Intl A Ann Clg .4% Condns DB=>MWB, ! Name
  37.5,                                   ! Maximum Dry-Bulb Temperature {C}
  17.9,                                   ! Daily Dry-Bulb Temperature Range {deltaC}
  17.1,                                   ! Humidity Indicating Conditions at Maximum Dry-Bulb {BasedOnField A3}
  87193,                                  ! Barometric Pressure {Pa}
  5,                                      ! Wind Speed {m/s}
  320,                                    ! Wind Direction {deg}
  0,                                      ! Sky Clearness
  0,                                      ! Rain Indicator
  0,                                      ! Snow Indicator
  21,                                     ! Day of Month
  6,                                      ! Month
  SummerDesignDay,                        ! Day Type
  0,                                      ! Daylight Saving Time Indicator
  Wetbulb,                                ! Humidity Indicating Type
  ,                                       ! Humidity Indicating Day Schedule Name
  DefaultMultipliers,                     ! Dry-Bulb Temperature Range Modifier Type
  ,                                       ! Dry-Bulb Temperature Range Modifier Schedule Name
  ASHRAETau,                              ! Solar Model Indicator
  ,                                       ! Beam Solar Day Schedule Name
  ,                                       ! Diffuse Solar Day Schedule Name
  0.453,                                  ! ASHRAE Taub {dimensionless}
  1.89;                                   ! ASHRAE Taud {dimensionless}

OS:ComponentData,
  {37ff16cf-89f5-4278-854b-dd77068ed1e6}, ! Handle
  Component Data 1,                       ! Name
  {2ee65183-01da-4c3f-9eec-852b4d463686}, ! UUID
  {f7a83b7d-bda0-4a00-be1a-01531275419d}, ! Version UUID
  1366306270,                             ! Creation Timestamp
  1366306270,                             ! Version Timestamp
  {2fff66d5-0db3-478b-a9ab-e3bc1090c0f7}; ! Name of Object 1

