
OS:Version,
  {b77d6f98-b229-475a-8fec-72efe4fb12d5}, ! Handle
  0.9.3;                                  ! Version Identifier

OS:SizingPeriod:DesignDay,
  {1f14af05-2cbd-4fe7-a5f9-b3822938704a}, ! Handle
  Ironwood  Awos Ann Clg 1% Condns DB=>MWB, ! Name
  27.9,                                   ! Maximum Dry-Bulb Temperature {C}
  11.7,                                   ! Daily Dry-Bulb Temperature Range {deltaC}
  19.8,                                   ! Humidity Indicating Conditions at Maximum Dry-Bulb {BasedOnField A3}
  96900,                                  ! Barometric Pressure {Pa}
  4.7,                                    ! Wind Speed {m/s}
  200,                                    ! Wind Direction {deg}
  0,                                      ! Sky Clearness
  0,                                      ! Rain Indicator
  0,                                      ! Snow Indicator
  21,                                     ! Day of Month
  7,                                      ! Month
  SummerDesignDay,                        ! Day Type
  0,                                      ! Daylight Saving Time Indicator
  Wetbulb,                                ! Humidity Indicating Type
  ,                                       ! Humidity Indicating Day Schedule Name
  DefaultMultipliers,                     ! Dry-Bulb Temperature Range Modifier Type
  ,                                       ! Dry-Bulb Temperature Range Modifier Schedule Name
  ASHRAETau,                              ! Solar Model Indicator
  ,                                       ! Beam Solar Day Schedule Name
  ,                                       ! Diffuse Solar Day Schedule Name
  0.402,                                  ! ASHRAE Taub {dimensionless}
  2.215;                                  ! ASHRAE Taud {dimensionless}

OS:ComponentData,
  {019e77ef-471e-47ac-90e2-b9c6d65efd3e}, ! Handle
  Component Data 1,                       ! Name
  {a3ff6f9b-c4f1-47f5-8f16-9da3f9c3d167}, ! UUID
  {1837fab7-5e04-47cf-89bf-d43966a27673}, ! Version UUID
  1366308041,                             ! Creation Timestamp
  1366308041,                             ! Version Timestamp
  {1f14af05-2cbd-4fe7-a5f9-b3822938704a}; ! Name of Object 1

