
OS:Version,
  {c0a7d022-9b7f-4f20-835f-85d79d147ae1}, ! Handle
  0.9.3;                                  ! Version Identifier

OS:SizingPeriod:DesignDay,
  {ee18f5f0-6f37-4ec3-a598-0e769d4733be}, ! Handle
  Gage Airport Ann Clg 1% Condns DP=>MDB, ! Name
  26.4,                                   ! Maximum Dry-Bulb Temperature {C}
  13.6,                                   ! Daily Dry-Bulb Temperature Range {deltaC}
  21.2,                                   ! Humidity Indicating Conditions at Maximum Dry-Bulb {BasedOnField A3}
  93553,                                  ! Barometric Pressure {Pa}
  6.7,                                    ! Wind Speed {m/s}
  180,                                    ! Wind Direction {deg}
  0,                                      ! Sky Clearness
  0,                                      ! Rain Indicator
  0,                                      ! Snow Indicator
  21,                                     ! Day of Month
  7,                                      ! Month
  SummerDesignDay,                        ! Day Type
  0,                                      ! Daylight Saving Time Indicator
  Dewpoint,                               ! Humidity Indicating Type
  ,                                       ! Humidity Indicating Day Schedule Name
  DefaultMultipliers,                     ! Dry-Bulb Temperature Range Modifier Type
  ,                                       ! Dry-Bulb Temperature Range Modifier Schedule Name
  ASHRAETau,                              ! Solar Model Indicator
  ,                                       ! Beam Solar Day Schedule Name
  ,                                       ! Diffuse Solar Day Schedule Name
  0.417,                                  ! ASHRAE Taub {dimensionless}
  2.179;                                  ! ASHRAE Taud {dimensionless}

OS:ComponentData,
  {29404e91-fd27-4be5-87e0-33e13e00b9e1}, ! Handle
  Component Data 1,                       ! Name
  {bbfcd27a-d124-4a8a-a38f-67a1dd2cf051}, ! UUID
  {918e8d03-6df5-4870-beca-2b86b980f2cb}, ! Version UUID
  1366309895,                             ! Creation Timestamp
  1366309895,                             ! Version Timestamp
  {ee18f5f0-6f37-4ec3-a598-0e769d4733be}; ! Name of Object 1

