
OS:Version,
  {8f24a5d4-92d5-4b14-bd56-74a68866c602}, ! Handle
  0.9.3;                                  ! Version Identifier

OS:SizingPeriod:DesignDay,
  {a3a9e1d9-2529-48c7-ad31-bf6bebf6d45f}, ! Handle
  Daytona Beach Intl Ap Ann Clg 1% Condns WB=>MDB, ! Name
  30.6,                                   ! Maximum Dry-Bulb Temperature {C}
  9,                                      ! Daily Dry-Bulb Temperature Range {deltaC}
  26.2,                                   ! Humidity Indicating Conditions at Maximum Dry-Bulb {BasedOnField A3}
  101217,                                 ! Barometric Pressure {Pa}
  4.4,                                    ! Wind Speed {m/s}
  230,                                    ! Wind Direction {deg}
  0,                                      ! Sky Clearness
  0,                                      ! Rain Indicator
  0,                                      ! Snow Indicator
  21,                                     ! Day of Month
  7,                                      ! Month
  SummerDesignDay,                        ! Day Type
  0,                                      ! Daylight Saving Time Indicator
  Wetbulb,                                ! Humidity Indicating Type
  ,                                       ! Humidity Indicating Day Schedule Name
  DefaultMultipliers,                     ! Dry-Bulb Temperature Range Modifier Type
  ,                                       ! Dry-Bulb Temperature Range Modifier Schedule Name
  ASHRAETau,                              ! Solar Model Indicator
  ,                                       ! Beam Solar Day Schedule Name
  ,                                       ! Diffuse Solar Day Schedule Name
  0.512,                                  ! ASHRAE Taub {dimensionless}
  1.951;                                  ! ASHRAE Taud {dimensionless}

