
OS:Version,
  {336bf6cc-5ec2-4b4a-af9e-749d01db53df}, ! Handle
  0.9.3;                                  ! Version Identifier

OS:SizingPeriod:DesignDay,
  {7b8ef367-8ac0-47b1-8c8d-5c59aa255685}, ! Handle
  HUNTSVILLE Ann Htg Wind 99.6% Condns WS=>MCDB, ! Name
  6.8,                                    ! Maximum Dry-Bulb Temperature {C}
  0,                                      ! Daily Dry-Bulb Temperature Range {deltaC}
  6.8,                                    ! Humidity Indicating Conditions at Maximum Dry-Bulb {BasedOnField A3}
  99063,                                  ! Barometric Pressure {Pa}
  11.7,                                   ! Wind Speed {m/s}
  340,                                    ! Wind Direction {deg}
  0,                                      ! Sky Clearness
  0,                                      ! Rain Indicator
  0,                                      ! Snow Indicator
  21,                                     ! Day of Month
  1,                                      ! Month
  WinterDesignDay,                        ! Day Type
  0,                                      ! Daylight Saving Time Indicator
  Wetbulb,                                ! Humidity Indicating Type
  ,                                       ! Humidity Indicating Day Schedule Name
  DefaultMultipliers,                     ! Dry-Bulb Temperature Range Modifier Type
  ,                                       ! Dry-Bulb Temperature Range Modifier Schedule Name
  ASHRAEClearSky;                         ! Solar Model Indicator

OS:ComponentData,
  {4523f6cd-2c8b-48ca-ab51-daa2335b9408}, ! Handle
  Component Data 1,                       ! Name
  {dae5a6ef-b076-4754-9c80-34057261c19e}, ! UUID
  {ffc76b83-c544-4ae5-b109-75bd08d53cbb}, ! Version UUID
  1366305666,                             ! Creation Timestamp
  1366305666,                             ! Version Timestamp
  {7b8ef367-8ac0-47b1-8c8d-5c59aa255685}; ! Name of Object 1

