
OS:Version,
  {b32534a3-a53b-4278-8e73-59802c544442}, ! Handle
  0.9.3;                                  ! Version Identifier

OS:SizingPeriod:DesignDay,
  {ddd453d4-6f73-4c1a-9d78-09294802c985}, ! Handle
  Dubuque Regional Ap Ann Htg 99.6% Condns DB, ! Name
  -22.3,                                  ! Maximum Dry-Bulb Temperature {C}
  0,                                      ! Daily Dry-Bulb Temperature Range {deltaC}
  -22.3,                                  ! Humidity Indicating Conditions at Maximum Dry-Bulb {BasedOnField A3}
  97516,                                  ! Barometric Pressure {Pa}
  4.2,                                    ! Wind Speed {m/s}
  300,                                    ! Wind Direction {deg}
  0,                                      ! Sky Clearness
  0,                                      ! Rain Indicator
  0,                                      ! Snow Indicator
  21,                                     ! Day of Month
  1,                                      ! Month
  WinterDesignDay,                        ! Day Type
  0,                                      ! Daylight Saving Time Indicator
  Wetbulb,                                ! Humidity Indicating Type
  ,                                       ! Humidity Indicating Day Schedule Name
  DefaultMultipliers,                     ! Dry-Bulb Temperature Range Modifier Type
  ,                                       ! Dry-Bulb Temperature Range Modifier Schedule Name
  ASHRAEClearSky;                         ! Solar Model Indicator

OS:ComponentData,
  {bd812059-026d-42d8-bcbe-ce67af61cedc}, ! Handle
  Component Data 1,                       ! Name
  {1222f12f-5cfd-4bac-87ca-813ed04a0716}, ! UUID
  {4bfbb0bb-ff03-4b6c-a9a3-844ae07eacd0}, ! Version UUID
  1366307183,                             ! Creation Timestamp
  1366307183,                             ! Version Timestamp
  {ddd453d4-6f73-4c1a-9d78-09294802c985}; ! Name of Object 1

