
OS:Version,
  {d5bf0e03-f2d3-4b8e-ac38-60aba99b023a}, ! Handle
  0.9.3;                                  ! Version Identifier

OS:SizingPeriod:DesignDay,
  {9a7393b5-b423-4d6f-9e36-9bdee5a1fd5d}, ! Handle
  CARIBOU Ann Clg 2% Condns WB=>MDB,      ! Name
  24.1,                                   ! Maximum Dry-Bulb Temperature {C}
  10.9,                                   ! Daily Dry-Bulb Temperature Range {deltaC}
  20.1,                                   ! Humidity Indicating Conditions at Maximum Dry-Bulb {BasedOnField A3}
  99063,                                  ! Barometric Pressure {Pa}
  4.3,                                    ! Wind Speed {m/s}
  250,                                    ! Wind Direction {deg}
  0,                                      ! Sky Clearness
  0,                                      ! Rain Indicator
  0,                                      ! Snow Indicator
  21,                                     ! Day of Month
  7,                                      ! Month
  SummerDesignDay,                        ! Day Type
  0,                                      ! Daylight Saving Time Indicator
  Wetbulb,                                ! Humidity Indicating Type
  ,                                       ! Humidity Indicating Day Schedule Name
  DefaultMultipliers,                     ! Dry-Bulb Temperature Range Modifier Type
  ,                                       ! Dry-Bulb Temperature Range Modifier Schedule Name
  ASHRAETau,                              ! Solar Model Indicator
  ,                                       ! Beam Solar Day Schedule Name
  ,                                       ! Diffuse Solar Day Schedule Name
  0.429,                                  ! ASHRAE Taub {dimensionless}
  2.106;                                  ! ASHRAE Taud {dimensionless}

OS:ComponentData,
  {c89b5053-5514-452e-b7e6-0aae3469adab}, ! Handle
  Component Data 1,                       ! Name
  {98481db1-c09c-43a1-b8b6-b7f043682e97}, ! UUID
  {c1cdd567-53a1-49c4-9e5e-6edecacff09b}, ! Version UUID
  1366307887,                             ! Creation Timestamp
  1366307887,                             ! Version Timestamp
  {9a7393b5-b423-4d6f-9e36-9bdee5a1fd5d}; ! Name of Object 1

