
OS:Version,
  {3bd67645-5034-4f35-b345-d080ac51de33}, ! Handle
  0.9.3;                                  ! Version Identifier

OS:SizingPeriod:DesignDay,
  {d72b5908-4698-4e1a-9d05-d757a32a4d9f}, ! Handle
  DULUTH Ann Clg 1% Condns DP=>MDB,       ! Name
  24.2,                                   ! Maximum Dry-Bulb Temperature {C}
  10.9,                                   ! Daily Dry-Bulb Temperature Range {deltaC}
  19.6,                                   ! Humidity Indicating Conditions at Maximum Dry-Bulb {BasedOnField A3}
  96242,                                  ! Barometric Pressure {Pa}
  5.2,                                    ! Wind Speed {m/s}
  220,                                    ! Wind Direction {deg}
  0,                                      ! Sky Clearness
  0,                                      ! Rain Indicator
  0,                                      ! Snow Indicator
  21,                                     ! Day of Month
  7,                                      ! Month
  SummerDesignDay,                        ! Day Type
  0,                                      ! Daylight Saving Time Indicator
  Dewpoint,                               ! Humidity Indicating Type
  ,                                       ! Humidity Indicating Day Schedule Name
  DefaultMultipliers,                     ! Dry-Bulb Temperature Range Modifier Type
  ,                                       ! Dry-Bulb Temperature Range Modifier Schedule Name
  ASHRAETau,                              ! Solar Model Indicator
  ,                                       ! Beam Solar Day Schedule Name
  ,                                       ! Diffuse Solar Day Schedule Name
  0.398,                                  ! ASHRAE Taub {dimensionless}
  2.218;                                  ! ASHRAE Taud {dimensionless}

OS:ComponentData,
  {6097fa78-9fda-429f-9804-a3cdbd83d5e4}, ! Handle
  Component Data 1,                       ! Name
  {0bf13c95-84cf-468e-87d0-eef171e98c3d}, ! UUID
  {b5511f9e-f5b7-409e-9e9f-27b3c0c89bbd}, ! Version UUID
  1366308198,                             ! Creation Timestamp
  1366308198,                             ! Version Timestamp
  {d72b5908-4698-4e1a-9d05-d757a32a4d9f}; ! Name of Object 1

