
OS:Version,
  {c6c650e9-a4b7-4a46-93f9-d2cf4a4e027c}, ! Handle
  0.9.3;                                  ! Version Identifier

OS:SizingPeriod:DesignDay,
  {640c3095-1c8f-4ae1-a9ad-965844af2cf5}, ! Handle
  Durango La Plata Co Ann Hum_n 99% Condns DP=>MCDB, ! Name
  -6.4,                                   ! Maximum Dry-Bulb Temperature {C}
  0,                                      ! Daily Dry-Bulb Temperature Range {deltaC}
  -18,                                    ! Humidity Indicating Conditions at Maximum Dry-Bulb {BasedOnField A3}
  79121,                                  ! Barometric Pressure {Pa}
  1.5,                                    ! Wind Speed {m/s}
  20,                                     ! Wind Direction {deg}
  0,                                      ! Sky Clearness
  0,                                      ! Rain Indicator
  0,                                      ! Snow Indicator
  21,                                     ! Day of Month
  12,                                     ! Month
  WinterDesignDay,                        ! Day Type
  0,                                      ! Daylight Saving Time Indicator
  Dewpoint,                               ! Humidity Indicating Type
  ,                                       ! Humidity Indicating Day Schedule Name
  DefaultMultipliers,                     ! Dry-Bulb Temperature Range Modifier Type
  ,                                       ! Dry-Bulb Temperature Range Modifier Schedule Name
  ASHRAEClearSky;                         ! Solar Model Indicator

OS:ComponentData,
  {037682ba-46ed-46dc-a374-ad76e38481b2}, ! Handle
  Component Data 1,                       ! Name
  {df2e4972-075e-4668-b216-8d9661706e07}, ! UUID
  {21d0a4d2-6076-4119-a9fc-5acd8cbd11d6}, ! Version UUID
  1366306681,                             ! Creation Timestamp
  1366306681,                             ! Version Timestamp
  {640c3095-1c8f-4ae1-a9ad-965844af2cf5}; ! Name of Object 1

