
OS:Version,
  {5c7880ca-1316-4cb3-9587-d68f28acb946}, ! Handle
  0.9.3;                                  ! Version Identifier

OS:SizingPeriod:DesignDay,
  {16f82897-9397-40d1-b5ce-33ae23e381d4}, ! Handle
  BATON_ROUGE Ann Clg 1% Condns Enth=>MDB, ! Name
  31.2,                                   ! Maximum Dry-Bulb Temperature {C}
  9.4,                                    ! Daily Dry-Bulb Temperature Range {deltaC}
  82200,                                  ! Humidity Indicating Conditions at Maximum Dry-Bulb {BasedOnField A3}
  101049,                                 ! Barometric Pressure {Pa}
  3.3,                                    ! Wind Speed {m/s}
  260,                                    ! Wind Direction {deg}
  0,                                      ! Sky Clearness
  0,                                      ! Rain Indicator
  0,                                      ! Snow Indicator
  21,                                     ! Day of Month
  7,                                      ! Month
  SummerDesignDay,                        ! Day Type
  0,                                      ! Daylight Saving Time Indicator
  Enthalpy,                               ! Humidity Indicating Type
  ,                                       ! Humidity Indicating Day Schedule Name
  DefaultMultipliers,                     ! Dry-Bulb Temperature Range Modifier Type
  ,                                       ! Dry-Bulb Temperature Range Modifier Schedule Name
  ASHRAETau,                              ! Solar Model Indicator
  ,                                       ! Beam Solar Day Schedule Name
  ,                                       ! Diffuse Solar Day Schedule Name
  0.542,                                  ! ASHRAE Taub {dimensionless}
  1.845;                                  ! ASHRAE Taud {dimensionless}

OS:ComponentData,
  {195d6648-ca03-4610-b780-6a63641c062d}, ! Handle
  Component Data 1,                       ! Name
  {ffd2cbf7-be32-4c93-ae02-3cc0d4e0af47}, ! UUID
  {a6390633-7e9a-4108-b3e7-6805caa34cce}, ! Version UUID
  1366307712,                             ! Creation Timestamp
  1366307712,                             ! Version Timestamp
  {16f82897-9397-40d1-b5ce-33ae23e381d4}; ! Name of Object 1

