
OS:Version,
  {2c365e3a-0e49-453d-b745-17d87b080951}, ! Handle
  0.9.3;                                  ! Version Identifier

OS:SizingPeriod:DesignDay,
  {9b65ce29-3c58-4e18-ba02-ca1f28ab10dd}, ! Handle
  Adak Nas Ann Htg 99.6% Condns DB,       ! Name
  -6.4,                                   ! Maximum Dry-Bulb Temperature {C}
  0,                                      ! Daily Dry-Bulb Temperature Range {deltaC}
  -6.4,                                   ! Humidity Indicating Conditions at Maximum Dry-Bulb {BasedOnField A3}
  101265,                                 ! Barometric Pressure {Pa}
  2.1,                                    ! Wind Speed {m/s}
  200,                                    ! Wind Direction {deg}
  0,                                      ! Sky Clearness
  0,                                      ! Rain Indicator
  0,                                      ! Snow Indicator
  21,                                     ! Day of Month
  1,                                      ! Month
  WinterDesignDay,                        ! Day Type
  0,                                      ! Daylight Saving Time Indicator
  Wetbulb,                                ! Humidity Indicating Type
  ,                                       ! Humidity Indicating Day Schedule Name
  DefaultMultipliers,                     ! Dry-Bulb Temperature Range Modifier Type
  ,                                       ! Dry-Bulb Temperature Range Modifier Schedule Name
  ASHRAEClearSky;                         ! Solar Model Indicator

OS:ComponentData,
  {e45b43cc-b383-4d87-bf8e-157c5e52a09e}, ! Handle
  Component Data 1,                       ! Name
  {bb766ce3-5909-4d5f-8038-38fb1fd3fb95}, ! UUID
  {6bbe02ec-7016-4ae2-ae3c-cc1ecc6101aa}, ! Version UUID
  1364004396,                             ! Creation Timestamp
  1364004396,                             ! Version Timestamp
  {9b65ce29-3c58-4e18-ba02-ca1f28ab10dd}; ! Name of Object 1

