
OS:Version,
  {edd4019b-829a-4c66-abba-40b978126dfb}, ! Handle
  0.9.3;                                  ! Version Identifier

OS:SizingPeriod:DesignDay,
  {0de24557-1954-45ae-8adf-3136f2886964}, ! Handle
  Columbia Ann Clg .4% Condns DB=>MWB,    ! Name
  34.8,                                   ! Maximum Dry-Bulb Temperature {C}
  11,                                     ! Daily Dry-Bulb Temperature Range {deltaC}
  24.5,                                   ! Humidity Indicating Conditions at Maximum Dry-Bulb {BasedOnField A3}
  98076,                                  ! Barometric Pressure {Pa}
  4.4,                                    ! Wind Speed {m/s}
  220,                                    ! Wind Direction {deg}
  0,                                      ! Sky Clearness
  0,                                      ! Rain Indicator
  0,                                      ! Snow Indicator
  21,                                     ! Day of Month
  7,                                      ! Month
  SummerDesignDay,                        ! Day Type
  0,                                      ! Daylight Saving Time Indicator
  Wetbulb,                                ! Humidity Indicating Type
  ,                                       ! Humidity Indicating Day Schedule Name
  DefaultMultipliers,                     ! Dry-Bulb Temperature Range Modifier Type
  ,                                       ! Dry-Bulb Temperature Range Modifier Schedule Name
  ASHRAETau,                              ! Solar Model Indicator
  ,                                       ! Beam Solar Day Schedule Name
  ,                                       ! Diffuse Solar Day Schedule Name
  0.448,                                  ! ASHRAE Taub {dimensionless}
  2.098;                                  ! ASHRAE Taud {dimensionless}

OS:ComponentData,
  {58eeb4f6-c2ca-4be4-b5f2-2066b71209e2}, ! Handle
  Component Data 1,                       ! Name
  {7a087a7e-5529-46ad-9ee8-dfc0560f102f}, ! UUID
  {4f7889e0-9044-4bf4-83d1-aed41a146adc}, ! Version UUID
  1366308486,                             ! Creation Timestamp
  1366308486,                             ! Version Timestamp
  {0de24557-1954-45ae-8adf-3136f2886964}; ! Name of Object 1

