
OS:Version,
  {63f90b6a-89b4-463b-a947-1107833d8909}, ! Handle
  0.9.3;                                  ! Version Identifier

OS:SizingPeriod:DesignDay,
  {15ea3fba-c25f-4008-aee0-87650dc9c7b9}, ! Handle
  Boston Ann Clg .4% Condns DB=>MWB,      ! Name
  32.7,                                   ! Maximum Dry-Bulb Temperature {C}
  8.4,                                    ! Daily Dry-Bulb Temperature Range {deltaC}
  22.9,                                   ! Humidity Indicating Conditions at Maximum Dry-Bulb {BasedOnField A3}
  101253,                                 ! Barometric Pressure {Pa}
  6.3,                                    ! Wind Speed {m/s}
  270,                                    ! Wind Direction {deg}
  0,                                      ! Sky Clearness
  0,                                      ! Rain Indicator
  0,                                      ! Snow Indicator
  21,                                     ! Day of Month
  7,                                      ! Month
  SummerDesignDay,                        ! Day Type
  0,                                      ! Daylight Saving Time Indicator
  Wetbulb,                                ! Humidity Indicating Type
  ,                                       ! Humidity Indicating Day Schedule Name
  DefaultMultipliers,                     ! Dry-Bulb Temperature Range Modifier Type
  ,                                       ! Dry-Bulb Temperature Range Modifier Schedule Name
  ASHRAETau,                              ! Solar Model Indicator
  ,                                       ! Beam Solar Day Schedule Name
  ,                                       ! Diffuse Solar Day Schedule Name
  0.488,                                  ! ASHRAE Taub {dimensionless}
  1.95;                                   ! ASHRAE Taud {dimensionless}

OS:ComponentData,
  {5f50eda9-f307-4441-82aa-71dd1c260982}, ! Handle
  Component Data 1,                       ! Name
  {995801f6-471c-44ad-9a2f-ed1755fafa8b}, ! UUID
  {485a862e-a1f8-4b0b-a291-20defb589454}, ! Version UUID
  1366307789,                             ! Creation Timestamp
  1366307789,                             ! Version Timestamp
  {15ea3fba-c25f-4008-aee0-87650dc9c7b9}; ! Name of Object 1

