
OS:Version,
  {1186781a-e288-489c-93b0-ce1fd2f10074}, ! Handle
  0.9.3;                                  ! Version Identifier

OS:SizingPeriod:DesignDay,
  {74496861-b8dd-4370-8ddb-a78eaa601fe2}, ! Handle
  La Crosse Municipal Arpt Ann Clg .4% Condns DB=>MWB, ! Name
  33.4,                                   ! Maximum Dry-Bulb Temperature {C}
  11.1,                                   ! Daily Dry-Bulb Temperature Range {deltaC}
  23.9,                                   ! Humidity Indicating Conditions at Maximum Dry-Bulb {BasedOnField A3}
  98969,                                  ! Barometric Pressure {Pa}
  5.4,                                    ! Wind Speed {m/s}
  180,                                    ! Wind Direction {deg}
  0,                                      ! Sky Clearness
  0,                                      ! Rain Indicator
  0,                                      ! Snow Indicator
  21,                                     ! Day of Month
  7,                                      ! Month
  SummerDesignDay,                        ! Day Type
  0,                                      ! Daylight Saving Time Indicator
  Wetbulb,                                ! Humidity Indicating Type
  ,                                       ! Humidity Indicating Day Schedule Name
  DefaultMultipliers,                     ! Dry-Bulb Temperature Range Modifier Type
  ,                                       ! Dry-Bulb Temperature Range Modifier Schedule Name
  ASHRAETau,                              ! Solar Model Indicator
  ,                                       ! Beam Solar Day Schedule Name
  ,                                       ! Diffuse Solar Day Schedule Name
  0.431,                                  ! ASHRAE Taub {dimensionless}
  2.126;                                  ! ASHRAE Taud {dimensionless}

OS:ComponentData,
  {e1aa61aa-6c06-42f5-9e08-85d7a9d01b9f}, ! Handle
  Component Data 1,                       ! Name
  {b1a9836f-b463-41c3-80bf-22a1440b0e26}, ! UUID
  {570c4908-62c2-4c96-ad77-6a997e2b3c91}, ! Version UUID
  1366311513,                             ! Creation Timestamp
  1366311513,                             ! Version Timestamp
  {74496861-b8dd-4370-8ddb-a78eaa601fe2}; ! Name of Object 1

