
OS:Version,
  {3fc5f1dd-9ef6-49cb-ad78-26526cafc08e}, ! Handle
  0.9.3;                                  ! Version Identifier

OS:SizingPeriod:DesignDay,
  {267bf06a-b8a4-49c3-ab0a-c17aba745441}, ! Handle
  Fergus Falls Awos Ann Clg .4% Condns DP=>MDB, ! Name
  26.7,                                   ! Maximum Dry-Bulb Temperature {C}
  11.6,                                   ! Daily Dry-Bulb Temperature Range {deltaC}
  23.1,                                   ! Humidity Indicating Conditions at Maximum Dry-Bulb {BasedOnField A3}
  97063,                                  ! Barometric Pressure {Pa}
  6.2,                                    ! Wind Speed {m/s}
  170,                                    ! Wind Direction {deg}
  0,                                      ! Sky Clearness
  0,                                      ! Rain Indicator
  0,                                      ! Snow Indicator
  21,                                     ! Day of Month
  7,                                      ! Month
  SummerDesignDay,                        ! Day Type
  0,                                      ! Daylight Saving Time Indicator
  Dewpoint,                               ! Humidity Indicating Type
  ,                                       ! Humidity Indicating Day Schedule Name
  DefaultMultipliers,                     ! Dry-Bulb Temperature Range Modifier Type
  ,                                       ! Dry-Bulb Temperature Range Modifier Schedule Name
  ASHRAETau,                              ! Solar Model Indicator
  ,                                       ! Beam Solar Day Schedule Name
  ,                                       ! Diffuse Solar Day Schedule Name
  0.393,                                  ! ASHRAE Taub {dimensionless}
  2.26;                                   ! ASHRAE Taud {dimensionless}

OS:ComponentData,
  {cadf9de3-5e5c-4b9e-a1e6-00ff838b1c7d}, ! Handle
  Component Data 1,                       ! Name
  {0cb000f6-0c69-4866-9baf-90ad84d29d4c}, ! UUID
  {1a223dee-22a0-4834-bab1-a17e2c99c0e0}, ! Version UUID
  1366308234,                             ! Creation Timestamp
  1366308234,                             ! Version Timestamp
  {267bf06a-b8a4-49c3-ab0a-c17aba745441}; ! Name of Object 1

