
OS:Version,
  {fe0cbb51-779b-42fa-a5cf-f663286b190f}, ! Handle
  0.9.3;                                  ! Version Identifier

OS:SizingPeriod:DesignDay,
  {f6c58304-d835-41b5-a9e1-23925dde842e}, ! Handle
  Benton Harbor Ross Ann Htg Wind 99% Condns WS=>MCDB, ! Name
  -2.3,                                   ! Maximum Dry-Bulb Temperature {C}
  0,                                      ! Daily Dry-Bulb Temperature Range {deltaC}
  -2.3,                                   ! Humidity Indicating Conditions at Maximum Dry-Bulb {BasedOnField A3}
  98992,                                  ! Barometric Pressure {Pa}
  10.9,                                   ! Wind Speed {m/s}
  150,                                    ! Wind Direction {deg}
  0,                                      ! Sky Clearness
  0,                                      ! Rain Indicator
  0,                                      ! Snow Indicator
  21,                                     ! Day of Month
  1,                                      ! Month
  WinterDesignDay,                        ! Day Type
  0,                                      ! Daylight Saving Time Indicator
  Wetbulb,                                ! Humidity Indicating Type
  ,                                       ! Humidity Indicating Day Schedule Name
  DefaultMultipliers,                     ! Dry-Bulb Temperature Range Modifier Type
  ,                                       ! Dry-Bulb Temperature Range Modifier Schedule Name
  ASHRAEClearSky;                         ! Solar Model Indicator

OS:ComponentData,
  {0294b036-07e9-4433-9957-6e97594044a0}, ! Handle
  Component Data 1,                       ! Name
  {1a0800cb-d589-4013-9701-ea2ec64a5ccf}, ! UUID
  {0622ec8e-689b-402f-98d0-7749cf67fc97}, ! Version UUID
  1366307955,                             ! Creation Timestamp
  1366307955,                             ! Version Timestamp
  {f6c58304-d835-41b5-a9e1-23925dde842e}; ! Name of Object 1

