
OS:Version,
  {6f805fe8-50eb-4787-b568-ac60510eba19}, ! Handle
  0.9.3;                                  ! Version Identifier

OS:SizingPeriod:DesignDay,
  {1c19a429-35b8-4a25-bb65-769331ac3f03}, ! Handle
  Dayton Wright Patterson Afb Ann Clg 1% Condns DP=>MDB, ! Name
  27.1,                                   ! Maximum Dry-Bulb Temperature {C}
  11,                                     ! Daily Dry-Bulb Temperature Range {deltaC}
  22.8,                                   ! Humidity Indicating Conditions at Maximum Dry-Bulb {BasedOnField A3}
  98358,                                  ! Barometric Pressure {Pa}
  3.9,                                    ! Wind Speed {m/s}
  240,                                    ! Wind Direction {deg}
  0,                                      ! Sky Clearness
  0,                                      ! Rain Indicator
  0,                                      ! Snow Indicator
  21,                                     ! Day of Month
  7,                                      ! Month
  SummerDesignDay,                        ! Day Type
  0,                                      ! Daylight Saving Time Indicator
  Dewpoint,                               ! Humidity Indicating Type
  ,                                       ! Humidity Indicating Day Schedule Name
  DefaultMultipliers,                     ! Dry-Bulb Temperature Range Modifier Type
  ,                                       ! Dry-Bulb Temperature Range Modifier Schedule Name
  ASHRAETau,                              ! Solar Model Indicator
  ,                                       ! Beam Solar Day Schedule Name
  ,                                       ! Diffuse Solar Day Schedule Name
  0.484,                                  ! ASHRAE Taub {dimensionless}
  1.94;                                   ! ASHRAE Taud {dimensionless}

OS:ComponentData,
  {75cd2ffc-362a-4c0c-a3ac-b7a58ef56c3d}, ! Handle
  Component Data 1,                       ! Name
  {c2b4f6bc-1c11-49f7-b455-20fa9374a0c6}, ! UUID
  {40105a84-b14e-4bec-b89b-6f3508691d4a}, ! Version UUID
  1366309813,                             ! Creation Timestamp
  1366309813,                             ! Version Timestamp
  {1c19a429-35b8-4a25-bb65-769331ac3f03}; ! Name of Object 1

