
OS:Version,
  {d1e5176a-a7b2-4764-8338-26a390ae9035}, ! Handle
  0.9.3;                                  ! Version Identifier

OS:SizingPeriod:DesignDay,
  {ecf534c4-5258-495a-a139-abc7be4272e2}, ! Handle
  Cape Hatteras Nws Bldg Ann Clg 2% Condns Enth=>MDB, ! Name
  27.9,                                   ! Maximum Dry-Bulb Temperature {C}
  4.4,                                    ! Daily Dry-Bulb Temperature Range {deltaC}
  79900,                                  ! Humidity Indicating Conditions at Maximum Dry-Bulb {BasedOnField A3}
  101289,                                 ! Barometric Pressure {Pa}
  4.4,                                    ! Wind Speed {m/s}
  0,                                      ! Wind Direction {deg}
  0,                                      ! Sky Clearness
  0,                                      ! Rain Indicator
  0,                                      ! Snow Indicator
  21,                                     ! Day of Month
  7,                                      ! Month
  SummerDesignDay,                        ! Day Type
  0,                                      ! Daylight Saving Time Indicator
  Enthalpy,                               ! Humidity Indicating Type
  ,                                       ! Humidity Indicating Day Schedule Name
  DefaultMultipliers,                     ! Dry-Bulb Temperature Range Modifier Type
  ,                                       ! Dry-Bulb Temperature Range Modifier Schedule Name
  ASHRAETau,                              ! Solar Model Indicator
  ,                                       ! Beam Solar Day Schedule Name
  ,                                       ! Diffuse Solar Day Schedule Name
  0.57,                                   ! ASHRAE Taub {dimensionless}
  1.801;                                  ! ASHRAE Taud {dimensionless}

OS:ComponentData,
  {70fa69f1-8039-4a2e-8971-b93ab8aba695}, ! Handle
  Component Data 1,                       ! Name
  {399e5199-c587-4c6d-baa1-1a7f89314bfd}, ! UUID
  {206442ad-4725-44d4-b5bf-35028d2f2463}, ! Version UUID
  1366308882,                             ! Creation Timestamp
  1366308882,                             ! Version Timestamp
  {ecf534c4-5258-495a-a139-abc7be4272e2}; ! Name of Object 1

