
OS:Version,
  {c6e55cfe-da7a-470e-ba6c-92635e04f80f}, ! Handle
  0.9.3;                                  ! Version Identifier

OS:SizingPeriod:DesignDay,
  {72c33ba6-6f4a-4dd7-a17e-cf06b440a173}, ! Handle
  Lewiston Nez Perce Cnty Ap Ann Clg 1% Condns DP=>MDB, ! Name
  22.2,                                   ! Maximum Dry-Bulb Temperature {C}
  15,                                     ! Daily Dry-Bulb Temperature Range {deltaC}
  14.1,                                   ! Humidity Indicating Conditions at Maximum Dry-Bulb {BasedOnField A3}
  96173,                                  ! Barometric Pressure {Pa}
  3,                                      ! Wind Speed {m/s}
  320,                                    ! Wind Direction {deg}
  0,                                      ! Sky Clearness
  0,                                      ! Rain Indicator
  0,                                      ! Snow Indicator
  21,                                     ! Day of Month
  7,                                      ! Month
  SummerDesignDay,                        ! Day Type
  0,                                      ! Daylight Saving Time Indicator
  Dewpoint,                               ! Humidity Indicating Type
  ,                                       ! Humidity Indicating Day Schedule Name
  DefaultMultipliers,                     ! Dry-Bulb Temperature Range Modifier Type
  ,                                       ! Dry-Bulb Temperature Range Modifier Schedule Name
  ASHRAETau,                              ! Solar Model Indicator
  ,                                       ! Beam Solar Day Schedule Name
  ,                                       ! Diffuse Solar Day Schedule Name
  0.393,                                  ! ASHRAE Taub {dimensionless}
  2.242;                                  ! ASHRAE Taud {dimensionless}

OS:ComponentData,
  {16778c48-6ea4-4879-87b0-4a3ff52c2767}, ! Handle
  Component Data 1,                       ! Name
  {b7c066dc-bd24-4166-a448-d21b4b1031c3}, ! UUID
  {47e78cf0-8fc0-4777-b4fe-7c7e17554f89}, ! Version UUID
  1366307292,                             ! Creation Timestamp
  1366307292,                             ! Version Timestamp
  {72c33ba6-6f4a-4dd7-a17e-cf06b440a173}; ! Name of Object 1

