
OS:Version,
  {f8dcc3b6-e971-40d5-b551-bbaa2410ede8}, ! Handle
  0.9.3;                                  ! Version Identifier

OS:SizingPeriod:DesignDay,
  {9d65c13e-7a60-44d3-a174-0f2721f82e41}, ! Handle
  Dalhart Municipal Ap Ann Clg 2% Condns Enth=>MDB, ! Name
  29.3,                                   ! Maximum Dry-Bulb Temperature {C}
  15.2,                                   ! Daily Dry-Bulb Temperature Range {deltaC}
  62500,                                  ! Humidity Indicating Conditions at Maximum Dry-Bulb {BasedOnField A3}
  87545,                                  ! Barometric Pressure {Pa}
  6.5,                                    ! Wind Speed {m/s}
  180,                                    ! Wind Direction {deg}
  0,                                      ! Sky Clearness
  0,                                      ! Rain Indicator
  0,                                      ! Snow Indicator
  21,                                     ! Day of Month
  7,                                      ! Month
  SummerDesignDay,                        ! Day Type
  0,                                      ! Daylight Saving Time Indicator
  Enthalpy,                               ! Humidity Indicating Type
  ,                                       ! Humidity Indicating Day Schedule Name
  DefaultMultipliers,                     ! Dry-Bulb Temperature Range Modifier Type
  ,                                       ! Dry-Bulb Temperature Range Modifier Schedule Name
  ASHRAETau,                              ! Solar Model Indicator
  ,                                       ! Beam Solar Day Schedule Name
  ,                                       ! Diffuse Solar Day Schedule Name
  0.401,                                  ! ASHRAE Taub {dimensionless}
  2.151;                                  ! ASHRAE Taud {dimensionless}

OS:ComponentData,
  {a5bc744f-bbf9-4057-a4eb-434f137afba4}, ! Handle
  Component Data 1,                       ! Name
  {1c096b71-745e-4abe-ba3b-b8d969e9966a}, ! UUID
  {6720d973-427d-4b43-b8ed-ac4b63ee34ee}, ! Version UUID
  1366310651,                             ! Creation Timestamp
  1366310651,                             ! Version Timestamp
  {9d65c13e-7a60-44d3-a174-0f2721f82e41}; ! Name of Object 1

