
OS:Version,
  {c7636490-25b9-45ad-9681-7e83c5a8cbab}, ! Handle
  0.9.3;                                  ! Version Identifier

OS:SizingPeriod:DesignDay,
  {e9863243-89f9-4794-9fc7-74c0be896b5e}, ! Handle
  Clinton Sherman Ann Clg 2% Condns WB=>MDB, ! Name
  31.5,                                   ! Maximum Dry-Bulb Temperature {C}
  12.8,                                   ! Daily Dry-Bulb Temperature Range {deltaC}
  23.3,                                   ! Humidity Indicating Conditions at Maximum Dry-Bulb {BasedOnField A3}
  94480,                                  ! Barometric Pressure {Pa}
  6.1,                                    ! Wind Speed {m/s}
  190,                                    ! Wind Direction {deg}
  0,                                      ! Sky Clearness
  0,                                      ! Rain Indicator
  0,                                      ! Snow Indicator
  21,                                     ! Day of Month
  7,                                      ! Month
  SummerDesignDay,                        ! Day Type
  0,                                      ! Daylight Saving Time Indicator
  Wetbulb,                                ! Humidity Indicating Type
  ,                                       ! Humidity Indicating Day Schedule Name
  DefaultMultipliers,                     ! Dry-Bulb Temperature Range Modifier Type
  ,                                       ! Dry-Bulb Temperature Range Modifier Schedule Name
  ASHRAETau,                              ! Solar Model Indicator
  ,                                       ! Beam Solar Day Schedule Name
  ,                                       ! Diffuse Solar Day Schedule Name
  0.405,                                  ! ASHRAE Taub {dimensionless}
  2.264;                                  ! ASHRAE Taud {dimensionless}

OS:ComponentData,
  {f3aeac82-6e03-4f4d-981f-9c47a33f9703}, ! Handle
  Component Data 1,                       ! Name
  {123aeb54-28c3-405e-be16-d4ee547e298b}, ! UUID
  {22f4fad0-e7fb-4ded-baf9-4d33fea1075e}, ! Version UUID
  1366309885,                             ! Creation Timestamp
  1366309885,                             ! Version Timestamp
  {e9863243-89f9-4794-9fc7-74c0be896b5e}; ! Name of Object 1

