
OS:Version,
  {58059e6f-0177-4ed8-a32a-3106410b64db}, ! Handle
  0.9.3;                                  ! Version Identifier

OS:SizingPeriod:DesignDay,
  {36871efe-7f37-40e9-afae-c852116f5dba}, ! Handle
  Fresno Yosemite Intl Ap Ann Clg 2% Condns Enth=>MDB, ! Name
  34.4,                                   ! Maximum Dry-Bulb Temperature {C}
  16.4,                                   ! Daily Dry-Bulb Temperature Range {deltaC}
  62700,                                  ! Humidity Indicating Conditions at Maximum Dry-Bulb {BasedOnField A3}
  100106,                                 ! Barometric Pressure {Pa}
  3.7,                                    ! Wind Speed {m/s}
  300,                                    ! Wind Direction {deg}
  0,                                      ! Sky Clearness
  0,                                      ! Rain Indicator
  0,                                      ! Snow Indicator
  21,                                     ! Day of Month
  7,                                      ! Month
  SummerDesignDay,                        ! Day Type
  0,                                      ! Daylight Saving Time Indicator
  Enthalpy,                               ! Humidity Indicating Type
  ,                                       ! Humidity Indicating Day Schedule Name
  DefaultMultipliers,                     ! Dry-Bulb Temperature Range Modifier Type
  ,                                       ! Dry-Bulb Temperature Range Modifier Schedule Name
  ASHRAETau,                              ! Solar Model Indicator
  ,                                       ! Beam Solar Day Schedule Name
  ,                                       ! Diffuse Solar Day Schedule Name
  0.428,                                  ! ASHRAE Taub {dimensionless}
  2.152;                                  ! ASHRAE Taud {dimensionless}

OS:ComponentData,
  {3689399f-42f2-4f05-a880-b44cdd4d3a23}, ! Handle
  Component Data 1,                       ! Name
  {4b562d99-9b1f-4330-8121-f11f8fcf190c}, ! UUID
  {0fa79e4b-c6b5-4736-b357-bf47e072743a}, ! Version UUID
  1366306440,                             ! Creation Timestamp
  1366306440,                             ! Version Timestamp
  {36871efe-7f37-40e9-afae-c852116f5dba}; ! Name of Object 1

