
OS:Version,
  {9b0f0bb9-420e-4157-9983-835969d06a69}, ! Handle
  0.9.3;                                  ! Version Identifier

OS:SizingPeriod:DesignDay,
  {ea4568bb-bf1d-4445-90a9-99bb73797adb}, ! Handle
  Harlingen Rio Grande Valley I Ann Clg 1% Condns DB=>MWB, ! Name
  36.2,                                   ! Maximum Dry-Bulb Temperature {C}
  11,                                     ! Daily Dry-Bulb Temperature Range {deltaC}
  25.4,                                   ! Humidity Indicating Conditions at Maximum Dry-Bulb {BasedOnField A3}
  101205,                                 ! Barometric Pressure {Pa}
  7.3,                                    ! Wind Speed {m/s}
  150,                                    ! Wind Direction {deg}
  0,                                      ! Sky Clearness
  0,                                      ! Rain Indicator
  0,                                      ! Snow Indicator
  21,                                     ! Day of Month
  7,                                      ! Month
  SummerDesignDay,                        ! Day Type
  0,                                      ! Daylight Saving Time Indicator
  Wetbulb,                                ! Humidity Indicating Type
  ,                                       ! Humidity Indicating Day Schedule Name
  DefaultMultipliers,                     ! Dry-Bulb Temperature Range Modifier Type
  ,                                       ! Dry-Bulb Temperature Range Modifier Schedule Name
  ASHRAETau,                              ! Solar Model Indicator
  ,                                       ! Beam Solar Day Schedule Name
  ,                                       ! Diffuse Solar Day Schedule Name
  0.46,                                   ! ASHRAE Taub {dimensionless}
  2.113;                                  ! ASHRAE Taud {dimensionless}

OS:ComponentData,
  {604b3a63-c1d4-4634-b746-113c626d543f}, ! Handle
  Component Data 1,                       ! Name
  {d45e6bdf-853a-4bfa-b04f-a1014da5cfa0}, ! UUID
  {a879c3f7-fff6-406e-b7fb-ccf50ca1d882}, ! Version UUID
  1366310727,                             ! Creation Timestamp
  1366310727,                             ! Version Timestamp
  {ea4568bb-bf1d-4445-90a9-99bb73797adb}; ! Name of Object 1

