
OS:Version,
  {5cf4278d-1804-4e24-8194-958e62e29dd0}, ! Handle
  0.9.3;                                  ! Version Identifier

OS:SizingPeriod:DesignDay,
  {df206c40-70f3-469d-b51d-960ebd74fff1}, ! Handle
  Jackson International Ap Ann Clg .4% Condns WB=>MDB, ! Name
  32.3,                                   ! Maximum Dry-Bulb Temperature {C}
  10.7,                                   ! Daily Dry-Bulb Temperature Range {deltaC}
  26.6,                                   ! Humidity Indicating Conditions at Maximum Dry-Bulb {BasedOnField A3}
  100201,                                 ! Barometric Pressure {Pa}
  3.2,                                    ! Wind Speed {m/s}
  350,                                    ! Wind Direction {deg}
  0,                                      ! Sky Clearness
  0,                                      ! Rain Indicator
  0,                                      ! Snow Indicator
  21,                                     ! Day of Month
  7,                                      ! Month
  SummerDesignDay,                        ! Day Type
  0,                                      ! Daylight Saving Time Indicator
  Wetbulb,                                ! Humidity Indicating Type
  ,                                       ! Humidity Indicating Day Schedule Name
  DefaultMultipliers,                     ! Dry-Bulb Temperature Range Modifier Type
  ,                                       ! Dry-Bulb Temperature Range Modifier Schedule Name
  ASHRAETau,                              ! Solar Model Indicator
  ,                                       ! Beam Solar Day Schedule Name
  ,                                       ! Diffuse Solar Day Schedule Name
  0.534,                                  ! ASHRAE Taub {dimensionless}
  1.869;                                  ! ASHRAE Taud {dimensionless}

OS:ComponentData,
  {f364b383-eaf6-452a-83f5-8327e5eff75b}, ! Handle
  Component Data 1,                       ! Name
  {927d3b93-507d-469c-bb82-3169ddbf7ca4}, ! UUID
  {b3fa7347-4583-45a4-9603-bc1109eb03a4}, ! Version UUID
  1366308651,                             ! Creation Timestamp
  1366308651,                             ! Version Timestamp
  {df206c40-70f3-469d-b51d-960ebd74fff1}; ! Name of Object 1

