
OS:Version,
  {907b7765-29b4-4ae1-a778-64b519ec525d}, ! Handle
  0.9.3;                                  ! Version Identifier

OS:SizingPeriod:DesignDay,
  {60b8d15e-4b7c-4af7-bbf7-1ee7c70a2eb0}, ! Handle
  ALLENTOWN Ann Hum_n 99.6% Condns DP=>MCDB, ! Name
  -12.2,                                  ! Maximum Dry-Bulb Temperature {C}
  0,                                      ! Daily Dry-Bulb Temperature Range {deltaC}
  -21.2,                                  ! Humidity Indicating Conditions at Maximum Dry-Bulb {BasedOnField A3}
  99927,                                  ! Barometric Pressure {Pa}
  4,                                      ! Wind Speed {m/s}
  330,                                    ! Wind Direction {deg}
  0,                                      ! Sky Clearness
  0,                                      ! Rain Indicator
  0,                                      ! Snow Indicator
  21,                                     ! Day of Month
  1,                                      ! Month
  WinterDesignDay,                        ! Day Type
  0,                                      ! Daylight Saving Time Indicator
  Dewpoint,                               ! Humidity Indicating Type
  ,                                       ! Humidity Indicating Day Schedule Name
  DefaultMultipliers,                     ! Dry-Bulb Temperature Range Modifier Type
  ,                                       ! Dry-Bulb Temperature Range Modifier Schedule Name
  ASHRAEClearSky;                         ! Solar Model Indicator

OS:ComponentData,
  {5756aa70-f664-46f4-9611-f2de53c44c4d}, ! Handle
  Component Data 1,                       ! Name
  {db15cc0f-cc53-4758-967f-161504f83836}, ! UUID
  {589df5d6-b021-4945-b031-91fe0872acc0}, ! Version UUID
  1366310135,                             ! Creation Timestamp
  1366310135,                             ! Version Timestamp
  {60b8d15e-4b7c-4af7-bbf7-1ee7c70a2eb0}; ! Name of Object 1

