
OS:Version,
  {da46d882-0969-448b-b1e3-4e2d2f84ccfc}, ! Handle
  0.9.3;                                  ! Version Identifier

OS:SizingPeriod:DesignDay,
  {c1aa4932-c2ef-4824-8101-1fd16fc0c86f}, ! Handle
  ATLANTIC_CITY Ann Clg 1% Condns DP=>MDB, ! Name
  27,                                     ! Maximum Dry-Bulb Temperature {C}
  10.2,                                   ! Daily Dry-Bulb Temperature Range {deltaC}
  23.4,                                   ! Humidity Indicating Conditions at Maximum Dry-Bulb {BasedOnField A3}
  101085,                                 ! Barometric Pressure {Pa}
  5,                                      ! Wind Speed {m/s}
  230,                                    ! Wind Direction {deg}
  0,                                      ! Sky Clearness
  0,                                      ! Rain Indicator
  0,                                      ! Snow Indicator
  21,                                     ! Day of Month
  7,                                      ! Month
  SummerDesignDay,                        ! Day Type
  0,                                      ! Daylight Saving Time Indicator
  Dewpoint,                               ! Humidity Indicating Type
  ,                                       ! Humidity Indicating Day Schedule Name
  DefaultMultipliers,                     ! Dry-Bulb Temperature Range Modifier Type
  ,                                       ! Dry-Bulb Temperature Range Modifier Schedule Name
  ASHRAETau,                              ! Solar Model Indicator
  ,                                       ! Beam Solar Day Schedule Name
  ,                                       ! Diffuse Solar Day Schedule Name
  0.557,                                  ! ASHRAE Taub {dimensionless}
  1.774;                                  ! ASHRAE Taud {dimensionless}

OS:ComponentData,
  {8b6f29e0-9e7b-421b-9cfd-a61fc37daabb}, ! Handle
  Component Data 1,                       ! Name
  {aad3c9d8-ff5b-41ce-b4de-a2c527f87c77}, ! UUID
  {0b28fa6f-bb6d-4f30-98aa-71d7352ece17}, ! Version UUID
  1366309283,                             ! Creation Timestamp
  1366309283,                             ! Version Timestamp
  {c1aa4932-c2ef-4824-8101-1fd16fc0c86f}; ! Name of Object 1

