
OS:Version,
  {f62f9265-1405-4d63-b3b1-3d7398a2a779}, ! Handle
  0.9.3;                                  ! Version Identifier

OS:SizingPeriod:DesignDay,
  {4314958b-f078-4b24-8e6a-7177236f6e68}, ! Handle
  AUGUSTA Ann Htg Wind 99% Condns WS=>MCDB, ! Name
  9.3,                                    ! Maximum Dry-Bulb Temperature {C}
  0,                                      ! Daily Dry-Bulb Temperature Range {deltaC}
  9.3,                                    ! Humidity Indicating Conditions at Maximum Dry-Bulb {BasedOnField A3}
  100786,                                 ! Barometric Pressure {Pa}
  9.1,                                    ! Wind Speed {m/s}
  300,                                    ! Wind Direction {deg}
  0,                                      ! Sky Clearness
  0,                                      ! Rain Indicator
  0,                                      ! Snow Indicator
  21,                                     ! Day of Month
  1,                                      ! Month
  WinterDesignDay,                        ! Day Type
  0,                                      ! Daylight Saving Time Indicator
  Wetbulb,                                ! Humidity Indicating Type
  ,                                       ! Humidity Indicating Day Schedule Name
  DefaultMultipliers,                     ! Dry-Bulb Temperature Range Modifier Type
  ,                                       ! Dry-Bulb Temperature Range Modifier Schedule Name
  ASHRAEClearSky;                         ! Solar Model Indicator

OS:ComponentData,
  {a62f05b6-fe45-40fe-b4f8-d567d9028118}, ! Handle
  Component Data 1,                       ! Name
  {f1ba395a-717e-4175-8caf-5b3185255940}, ! UUID
  {4e6a214b-eb8f-487d-8bdc-2cc981b547a9}, ! Version UUID
  1366306991,                             ! Creation Timestamp
  1366306991,                             ! Version Timestamp
  {4314958b-f078-4b24-8e6a-7177236f6e68}; ! Name of Object 1

