
OS:Version,
  {7f3c3013-c39c-4c0d-8530-b3f23ab985a8}, ! Handle
  0.9.3;                                  ! Version Identifier

OS:SizingPeriod:DesignDay,
  {a143e17d-5a01-4639-8acf-4e5ec51b349b}, ! Handle
  BUFFALO Ann Htg 99.6% Condns DB,        ! Name
  -16.3,                                  ! Maximum Dry-Bulb Temperature {C}
  0,                                      ! Daily Dry-Bulb Temperature Range {deltaC}
  -16.3,                                  ! Humidity Indicating Conditions at Maximum Dry-Bulb {BasedOnField A3}
  98769,                                  ! Barometric Pressure {Pa}
  5.1,                                    ! Wind Speed {m/s}
  270,                                    ! Wind Direction {deg}
  0,                                      ! Sky Clearness
  0,                                      ! Rain Indicator
  0,                                      ! Snow Indicator
  21,                                     ! Day of Month
  1,                                      ! Month
  WinterDesignDay,                        ! Day Type
  0,                                      ! Daylight Saving Time Indicator
  Wetbulb,                                ! Humidity Indicating Type
  ,                                       ! Humidity Indicating Day Schedule Name
  DefaultMultipliers,                     ! Dry-Bulb Temperature Range Modifier Type
  ,                                       ! Dry-Bulb Temperature Range Modifier Schedule Name
  ASHRAEClearSky;                         ! Solar Model Indicator

OS:ComponentData,
  {2213c536-fffe-4477-a266-e7e68de004d5}, ! Handle
  Component Data 1,                       ! Name
  {214d2d46-e259-41aa-bec4-86a4fc08c9b9}, ! UUID
  {0cd1a6af-a0c1-4e40-88cc-2657c728a810}, ! Version UUID
  1366309611,                             ! Creation Timestamp
  1366309611,                             ! Version Timestamp
  {a143e17d-5a01-4639-8acf-4e5ec51b349b}; ! Name of Object 1

