
OS:Version,
  {d069d39e-f5d7-4c7b-b649-cbdd2f1e9f2f}, ! Handle
  0.9.3;                                  ! Version Identifier

OS:SizingPeriod:DesignDay,
  {fbdff91c-9123-421d-bd3b-4b47860cc4ca}, ! Handle
  Fosston Awos Ann Clg 2% Condns DP=>MDB, ! Name
  24,                                     ! Maximum Dry-Bulb Temperature {C}
  10.6,                                   ! Daily Dry-Bulb Temperature Range {deltaC}
  18.9,                                   ! Humidity Indicating Conditions at Maximum Dry-Bulb {BasedOnField A3}
  96750,                                  ! Barometric Pressure {Pa}
  5.4,                                    ! Wind Speed {m/s}
  160,                                    ! Wind Direction {deg}
  0,                                      ! Sky Clearness
  0,                                      ! Rain Indicator
  0,                                      ! Snow Indicator
  21,                                     ! Day of Month
  7,                                      ! Month
  SummerDesignDay,                        ! Day Type
  0,                                      ! Daylight Saving Time Indicator
  Dewpoint,                               ! Humidity Indicating Type
  ,                                       ! Humidity Indicating Day Schedule Name
  DefaultMultipliers,                     ! Dry-Bulb Temperature Range Modifier Type
  ,                                       ! Dry-Bulb Temperature Range Modifier Schedule Name
  ASHRAETau,                              ! Solar Model Indicator
  ,                                       ! Beam Solar Day Schedule Name
  ,                                       ! Diffuse Solar Day Schedule Name
  0.389,                                  ! ASHRAE Taub {dimensionless}
  2.278;                                  ! ASHRAE Taud {dimensionless}

OS:ComponentData,
  {78a98bf2-8da5-467d-893b-8153d0140a7f}, ! Handle
  Component Data 1,                       ! Name
  {88d7bc72-1a9c-4b71-bd8c-4055badfebe7}, ! UUID
  {bc7e21bb-5236-4047-acd6-80f701438cf4}, ! Version UUID
  1366308239,                             ! Creation Timestamp
  1366308239,                             ! Version Timestamp
  {fbdff91c-9123-421d-bd3b-4b47860cc4ca}; ! Name of Object 1

