
OS:Version,
  {cf1f74de-1295-4bfd-85c4-b2da29ce58fd}, ! Handle
  0.9.3;                                  ! Version Identifier

OS:SizingPeriod:DesignDay,
  {4911ce6b-2b4d-43cb-b43a-0ed483aca685}, ! Handle
  Evansville Ann Clg 1% Condns Enth=>MDB, ! Name
  31.1,                                   ! Maximum Dry-Bulb Temperature {C}
  10.6,                                   ! Daily Dry-Bulb Temperature Range {deltaC}
  79200,                                  ! Humidity Indicating Conditions at Maximum Dry-Bulb {BasedOnField A3}
  99915,                                  ! Barometric Pressure {Pa}
  3.7,                                    ! Wind Speed {m/s}
  240,                                    ! Wind Direction {deg}
  0,                                      ! Sky Clearness
  0,                                      ! Rain Indicator
  0,                                      ! Snow Indicator
  21,                                     ! Day of Month
  7,                                      ! Month
  SummerDesignDay,                        ! Day Type
  0,                                      ! Daylight Saving Time Indicator
  Enthalpy,                               ! Humidity Indicating Type
  ,                                       ! Humidity Indicating Day Schedule Name
  DefaultMultipliers,                     ! Dry-Bulb Temperature Range Modifier Type
  ,                                       ! Dry-Bulb Temperature Range Modifier Schedule Name
  ASHRAETau,                              ! Solar Model Indicator
  ,                                       ! Beam Solar Day Schedule Name
  ,                                       ! Diffuse Solar Day Schedule Name
  0.508,                                  ! ASHRAE Taub {dimensionless}
  1.881;                                  ! ASHRAE Taud {dimensionless}

OS:ComponentData,
  {ea245f15-cb12-4dc6-9890-ed603897c6cf}, ! Handle
  Component Data 1,                       ! Name
  {779e2ef7-2a0b-4b9d-913f-0fbcc7a470de}, ! UUID
  {ebbf0e46-c440-46cf-847f-773e0db4543d}, ! Version UUID
  1366307430,                             ! Creation Timestamp
  1366307430,                             ! Version Timestamp
  {4911ce6b-2b4d-43cb-b43a-0ed483aca685}; ! Name of Object 1

