
OS:Version,
  {94992b32-a67e-4e15-af3d-da99d93b41e3}, ! Handle
  0.9.3;                                  ! Version Identifier

OS:SizingPeriod:DesignDay,
  {305adb1e-ea01-40cf-beee-85c51fa0e4cd}, ! Handle
  Altus Afb Ann Hum_n 99.6% Condns DP=>MCDB, ! Name
  -7.4,                                   ! Maximum Dry-Bulb Temperature {C}
  0,                                      ! Daily Dry-Bulb Temperature Range {deltaC}
  -17.6,                                  ! Humidity Indicating Conditions at Maximum Dry-Bulb {BasedOnField A3}
  96449,                                  ! Barometric Pressure {Pa}
  4.7,                                    ! Wind Speed {m/s}
  10,                                     ! Wind Direction {deg}
  0,                                      ! Sky Clearness
  0,                                      ! Rain Indicator
  0,                                      ! Snow Indicator
  21,                                     ! Day of Month
  1,                                      ! Month
  WinterDesignDay,                        ! Day Type
  0,                                      ! Daylight Saving Time Indicator
  Dewpoint,                               ! Humidity Indicating Type
  ,                                       ! Humidity Indicating Day Schedule Name
  DefaultMultipliers,                     ! Dry-Bulb Temperature Range Modifier Type
  ,                                       ! Dry-Bulb Temperature Range Modifier Schedule Name
  ASHRAEClearSky;                         ! Solar Model Indicator

OS:ComponentData,
  {bbfdd704-7caa-4052-a5a2-fe7d97e4a3fc}, ! Handle
  Component Data 1,                       ! Name
  {3acb5c2b-971d-43b1-9719-91c7affed131}, ! UUID
  {967903d7-1c7e-4c04-b616-660fe1633559}, ! Version UUID
  1366309877,                             ! Creation Timestamp
  1366309877,                             ! Version Timestamp
  {305adb1e-ea01-40cf-beee-85c51fa0e4cd}; ! Name of Object 1

