
OS:Version,
  {72386bcf-e748-4de7-9e8d-aed6ae855f69}, ! Handle
  0.9.3;                                  ! Version Identifier

OS:SizingPeriod:DesignDay,
  {bf3d280a-2710-439d-b78a-8f79576923f5}, ! Handle
  Elmira Corning Regional Ap Ann Htg 99% Condns DB, ! Name
  -15.9,                                  ! Maximum Dry-Bulb Temperature {C}
  0,                                      ! Daily Dry-Bulb Temperature Range {deltaC}
  -15.9,                                  ! Humidity Indicating Conditions at Maximum Dry-Bulb {BasedOnField A3}
  97878,                                  ! Barometric Pressure {Pa}
  2.2,                                    ! Wind Speed {m/s}
  240,                                    ! Wind Direction {deg}
  0,                                      ! Sky Clearness
  0,                                      ! Rain Indicator
  0,                                      ! Snow Indicator
  21,                                     ! Day of Month
  1,                                      ! Month
  WinterDesignDay,                        ! Day Type
  0,                                      ! Daylight Saving Time Indicator
  Wetbulb,                                ! Humidity Indicating Type
  ,                                       ! Humidity Indicating Day Schedule Name
  DefaultMultipliers,                     ! Dry-Bulb Temperature Range Modifier Type
  ,                                       ! Dry-Bulb Temperature Range Modifier Schedule Name
  ASHRAEClearSky;                         ! Solar Model Indicator

OS:ComponentData,
  {6764a6b5-2079-4af7-afee-bc2cba719269}, ! Handle
  Component Data 1,                       ! Name
  {1e4b68e3-aec0-4a2c-8956-c124691188f2}, ! UUID
  {8bba1bed-d0a9-4294-bc44-61506714d4dc}, ! Version UUID
  1366309616,                             ! Creation Timestamp
  1366309616,                             ! Version Timestamp
  {bf3d280a-2710-439d-b78a-8f79576923f5}; ! Name of Object 1

