
OS:Version,
  {6effd562-05e5-455d-9d30-0a2c484bd262}, ! Handle
  0.9.3;                                  ! Version Identifier

OS:SizingPeriod:DesignDay,
  {756f04ae-5c3b-4044-aa0c-df4f230c3dac}, ! Handle
  Cape Girardeau Municipal Ap Ann Clg 2% Condns WB=>MDB, ! Name
  30.7,                                   ! Maximum Dry-Bulb Temperature {C}
  10.7,                                   ! Daily Dry-Bulb Temperature Range {deltaC}
  25.4,                                   ! Humidity Indicating Conditions at Maximum Dry-Bulb {BasedOnField A3}
  100094,                                 ! Barometric Pressure {Pa}
  3.9,                                    ! Wind Speed {m/s}
  210,                                    ! Wind Direction {deg}
  0,                                      ! Sky Clearness
  0,                                      ! Rain Indicator
  0,                                      ! Snow Indicator
  21,                                     ! Day of Month
  7,                                      ! Month
  SummerDesignDay,                        ! Day Type
  0,                                      ! Daylight Saving Time Indicator
  Wetbulb,                                ! Humidity Indicating Type
  ,                                       ! Humidity Indicating Day Schedule Name
  DefaultMultipliers,                     ! Dry-Bulb Temperature Range Modifier Type
  ,                                       ! Dry-Bulb Temperature Range Modifier Schedule Name
  ASHRAETau,                              ! Solar Model Indicator
  ,                                       ! Beam Solar Day Schedule Name
  ,                                       ! Diffuse Solar Day Schedule Name
  0.491,                                  ! ASHRAE Taub {dimensionless}
  1.953;                                  ! ASHRAE Taud {dimensionless}

OS:ComponentData,
  {9518ea72-0595-4653-938a-c97fbd5ddb26}, ! Handle
  Component Data 1,                       ! Name
  {4d7f7fe9-0cdb-4764-871c-fd64be0e88f3}, ! UUID
  {7547537c-41d5-4b4e-b8c0-be9f393286ce}, ! Version UUID
  1366308475,                             ! Creation Timestamp
  1366308475,                             ! Version Timestamp
  {756f04ae-5c3b-4044-aa0c-df4f230c3dac}; ! Name of Object 1

