
OS:Version,
  {b0d49f9d-1e16-4333-b8c9-71434fff1359}, ! Handle
  0.9.3;                                  ! Version Identifier

OS:SizingPeriod:DesignDay,
  {1113bda6-cbc8-4540-8319-b9199313318e}, ! Handle
  GLASGOW Ann Hum_n 99.6% Condns DP=>MCDB, ! Name
  -29.7,                                  ! Maximum Dry-Bulb Temperature {C}
  0,                                      ! Daily Dry-Bulb Temperature Range {deltaC}
  -34.1,                                  ! Humidity Indicating Conditions at Maximum Dry-Bulb {BasedOnField A3}
  93194,                                  ! Barometric Pressure {Pa}
  3.3,                                    ! Wind Speed {m/s}
  340,                                    ! Wind Direction {deg}
  0,                                      ! Sky Clearness
  0,                                      ! Rain Indicator
  0,                                      ! Snow Indicator
  21,                                     ! Day of Month
  1,                                      ! Month
  WinterDesignDay,                        ! Day Type
  0,                                      ! Daylight Saving Time Indicator
  Dewpoint,                               ! Humidity Indicating Type
  ,                                       ! Humidity Indicating Day Schedule Name
  DefaultMultipliers,                     ! Dry-Bulb Temperature Range Modifier Type
  ,                                       ! Dry-Bulb Temperature Range Modifier Schedule Name
  ASHRAEClearSky;                         ! Solar Model Indicator

OS:ComponentData,
  {124223ba-5e61-494d-92be-73fd4109633f}, ! Handle
  Component Data 1,                       ! Name
  {ab02ab5c-43f2-45e7-af25-3b60e7f91189}, ! UUID
  {40ae2876-305d-482f-9881-291cb7aa7469}, ! Version UUID
  1366308754,                             ! Creation Timestamp
  1366308754,                             ! Version Timestamp
  {1113bda6-cbc8-4540-8319-b9199313318e}; ! Name of Object 1

