
OS:Version,
  {6b388a3e-2e20-48ef-92b6-bf5be62f8aed}, ! Handle
  0.9.3;                                  ! Version Identifier

OS:SizingPeriod:DesignDay,
  {6f4eda56-ff8b-40e7-b2f5-12bbd7ad440f}, ! Handle
  Charleston Intl Arpt Ann Hum_n 99% Condns DP=>MCDB, ! Name
  3.6,                                    ! Maximum Dry-Bulb Temperature {C}
  0,                                      ! Daily Dry-Bulb Temperature Range {deltaC}
  -10.2,                                  ! Humidity Indicating Conditions at Maximum Dry-Bulb {BasedOnField A3}
  101181,                                 ! Barometric Pressure {Pa}
  2.7,                                    ! Wind Speed {m/s}
  20,                                     ! Wind Direction {deg}
  0,                                      ! Sky Clearness
  0,                                      ! Rain Indicator
  0,                                      ! Snow Indicator
  21,                                     ! Day of Month
  1,                                      ! Month
  WinterDesignDay,                        ! Day Type
  0,                                      ! Daylight Saving Time Indicator
  Dewpoint,                               ! Humidity Indicating Type
  ,                                       ! Humidity Indicating Day Schedule Name
  DefaultMultipliers,                     ! Dry-Bulb Temperature Range Modifier Type
  ,                                       ! Dry-Bulb Temperature Range Modifier Schedule Name
  ASHRAEClearSky;                         ! Solar Model Indicator

OS:ComponentData,
  {c79bc3ab-48fe-4634-a4b1-9b8319c6afdf}, ! Handle
  Component Data 1,                       ! Name
  {974ee936-315b-4312-8edf-bc32d095d1fa}, ! UUID
  {3854f359-c285-4d37-9795-adbd1542f5f6}, ! Version UUID
  1366310331,                             ! Creation Timestamp
  1366310331,                             ! Version Timestamp
  {6f4eda56-ff8b-40e7-b2f5-12bbd7ad440f}; ! Name of Object 1

