
OS:Version,
  {9a04a9a4-28e7-4b3d-a8a3-662e4b508c12}, ! Handle
  0.9.3;                                  ! Version Identifier

OS:SizingPeriod:DesignDay,
  {839a90cd-9d96-4dc6-ac5b-b8566ece14fd}, ! Handle
  Atlantic Ann Clg .4% Condns DP=>MDB,    ! Name
  31.3,                                   ! Maximum Dry-Bulb Temperature {C}
  11.2,                                   ! Daily Dry-Bulb Temperature Range {deltaC}
  26.1,                                   ! Humidity Indicating Conditions at Maximum Dry-Bulb {BasedOnField A3}
  97074,                                  ! Barometric Pressure {Pa}
  5.1,                                    ! Wind Speed {m/s}
  190,                                    ! Wind Direction {deg}
  0,                                      ! Sky Clearness
  0,                                      ! Rain Indicator
  0,                                      ! Snow Indicator
  21,                                     ! Day of Month
  7,                                      ! Month
  SummerDesignDay,                        ! Day Type
  0,                                      ! Daylight Saving Time Indicator
  Dewpoint,                               ! Humidity Indicating Type
  ,                                       ! Humidity Indicating Day Schedule Name
  DefaultMultipliers,                     ! Dry-Bulb Temperature Range Modifier Type
  ,                                       ! Dry-Bulb Temperature Range Modifier Schedule Name
  ASHRAETau,                              ! Solar Model Indicator
  ,                                       ! Beam Solar Day Schedule Name
  ,                                       ! Diffuse Solar Day Schedule Name
  0.416,                                  ! ASHRAE Taub {dimensionless}
  2.204;                                  ! ASHRAE Taud {dimensionless}

OS:ComponentData,
  {4bacfd13-709b-4c41-ab6c-c28d33cbb23e}, ! Handle
  Component Data 1,                       ! Name
  {4dc21488-7b84-4c0c-a3b5-a2444a10b5c1}, ! UUID
  {f7ba3a4c-0722-4088-9d87-d0a5e8b19691}, ! Version UUID
  1366307134,                             ! Creation Timestamp
  1366307134,                             ! Version Timestamp
  {839a90cd-9d96-4dc6-ac5b-b8566ece14fd}; ! Name of Object 1

