
OS:Version,
  {3d988e9a-ce82-48e1-b9c1-ba7be1e1603f}, ! Handle
  0.9.3;                                  ! Version Identifier

OS:SizingPeriod:DesignDay,
  {0a27fb98-1128-40fa-b412-5f4a7c3e2012}, ! Handle
  Greensboro Ann Hum_n 99% Condns DP=>MCDB, ! Name
  -2.3,                                   ! Maximum Dry-Bulb Temperature {C}
  0,                                      ! Daily Dry-Bulb Temperature Range {deltaC}
  -15.5,                                  ! Humidity Indicating Conditions at Maximum Dry-Bulb {BasedOnField A3}
  98123,                                  ! Barometric Pressure {Pa}
  3,                                      ! Wind Speed {m/s}
  300,                                    ! Wind Direction {deg}
  0,                                      ! Sky Clearness
  0,                                      ! Rain Indicator
  0,                                      ! Snow Indicator
  21,                                     ! Day of Month
  1,                                      ! Month
  WinterDesignDay,                        ! Day Type
  0,                                      ! Daylight Saving Time Indicator
  Dewpoint,                               ! Humidity Indicating Type
  ,                                       ! Humidity Indicating Day Schedule Name
  DefaultMultipliers,                     ! Dry-Bulb Temperature Range Modifier Type
  ,                                       ! Dry-Bulb Temperature Range Modifier Schedule Name
  ASHRAEClearSky;                         ! Solar Model Indicator

OS:ComponentData,
  {bd50d345-1af4-45e8-b634-e447ea0c3e94}, ! Handle
  Component Data 1,                       ! Name
  {010aeecf-6bfb-48ff-a2a1-58e6c4bb9e33}, ! UUID
  {03424607-048a-49f5-835f-4ca9c7c504cd}, ! Version UUID
  1366308927,                             ! Creation Timestamp
  1366308927,                             ! Version Timestamp
  {0a27fb98-1128-40fa-b412-5f4a7c3e2012}; ! Name of Object 1

