
OS:Version,
  {ffb7fd24-8d0c-4e7e-9da8-c8b7ea4aafe2}, ! Handle
  0.9.3;                                  ! Version Identifier

OS:SizingPeriod:DesignDay,
  {ad702081-8e8e-4829-8050-08e18f3cf723}, ! Handle
  Bangor International Ap Ann Htg Wind 99.6% Condns WS=>MCDB, ! Name
  -5.1,                                   ! Maximum Dry-Bulb Temperature {C}
  0,                                      ! Daily Dry-Bulb Temperature Range {deltaC}
  -5.1,                                   ! Humidity Indicating Conditions at Maximum Dry-Bulb {BasedOnField A3}
  100654,                                 ! Barometric Pressure {Pa}
  12.5,                                   ! Wind Speed {m/s}
  310,                                    ! Wind Direction {deg}
  0,                                      ! Sky Clearness
  0,                                      ! Rain Indicator
  0,                                      ! Snow Indicator
  21,                                     ! Day of Month
  1,                                      ! Month
  WinterDesignDay,                        ! Day Type
  0,                                      ! Daylight Saving Time Indicator
  Wetbulb,                                ! Humidity Indicating Type
  ,                                       ! Humidity Indicating Day Schedule Name
  DefaultMultipliers,                     ! Dry-Bulb Temperature Range Modifier Type
  ,                                       ! Dry-Bulb Temperature Range Modifier Schedule Name
  ASHRAEClearSky;                         ! Solar Model Indicator

OS:ComponentData,
  {3cd549ea-709e-47c0-ac37-6e06fe89b6f3}, ! Handle
  Component Data 1,                       ! Name
  {7b6e48ac-18f7-4ad0-82c4-a7803b5e9a2f}, ! UUID
  {964e1594-7500-483f-ba52-56ddb30eb18f}, ! Version UUID
  1366307874,                             ! Creation Timestamp
  1366307874,                             ! Version Timestamp
  {ad702081-8e8e-4829-8050-08e18f3cf723}; ! Name of Object 1

