
OS:Version,
  {0101c537-48cc-437c-b21e-f5fc0744a2a8}, ! Handle
  0.9.3;                                  ! Version Identifier

OS:SizingPeriod:DesignDay,
  {cd505ff8-1f28-4f6f-a30f-09d01518f52b}, ! Handle
  Flint Bishop Intl Arpt Ann Hum_n 99% Condns DP=>MCDB, ! Name
  -14.9,                                  ! Maximum Dry-Bulb Temperature {C}
  0,                                      ! Daily Dry-Bulb Temperature Range {deltaC}
  -19.6,                                  ! Humidity Indicating Conditions at Maximum Dry-Bulb {BasedOnField A3}
  98545,                                  ! Barometric Pressure {Pa}
  3.8,                                    ! Wind Speed {m/s}
  220,                                    ! Wind Direction {deg}
  0,                                      ! Sky Clearness
  0,                                      ! Rain Indicator
  0,                                      ! Snow Indicator
  21,                                     ! Day of Month
  1,                                      ! Month
  WinterDesignDay,                        ! Day Type
  0,                                      ! Daylight Saving Time Indicator
  Dewpoint,                               ! Humidity Indicating Type
  ,                                       ! Humidity Indicating Day Schedule Name
  DefaultMultipliers,                     ! Dry-Bulb Temperature Range Modifier Type
  ,                                       ! Dry-Bulb Temperature Range Modifier Schedule Name
  ASHRAEClearSky;                         ! Solar Model Indicator

OS:ComponentData,
  {e4b37463-754f-454c-bbc9-dc79bfbb6b7c}, ! Handle
  Component Data 1,                       ! Name
  {b829ca01-309d-4cde-9463-30630c295701}, ! UUID
  {3549e9ca-4099-49b5-ab0b-975d1d43395b}, ! Version UUID
  1366307999,                             ! Creation Timestamp
  1366307999,                             ! Version Timestamp
  {cd505ff8-1f28-4f6f-a30f-09d01518f52b}; ! Name of Object 1

