
OS:Version,
  {f3257d1e-50ce-4e69-a229-0c285458a62f}, ! Handle
  0.9.3;                                  ! Version Identifier

OS:SizingPeriod:DesignDay,
  {d9c3f278-5484-43b5-9c88-babb675a22a0}, ! Handle
  Denver Centennial  Golden   N Ann Htg 99.6% Condns DB, ! Name
  -18.8,                                  ! Maximum Dry-Bulb Temperature {C}
  0,                                      ! Daily Dry-Bulb Temperature Range {deltaC}
  -18.8,                                  ! Humidity Indicating Conditions at Maximum Dry-Bulb {BasedOnField A3}
  81198,                                  ! Barometric Pressure {Pa}
  3,                                      ! Wind Speed {m/s}
  340,                                    ! Wind Direction {deg}
  0,                                      ! Sky Clearness
  0,                                      ! Rain Indicator
  0,                                      ! Snow Indicator
  21,                                     ! Day of Month
  12,                                     ! Month
  WinterDesignDay,                        ! Day Type
  0,                                      ! Daylight Saving Time Indicator
  Wetbulb,                                ! Humidity Indicating Type
  ,                                       ! Humidity Indicating Day Schedule Name
  DefaultMultipliers,                     ! Dry-Bulb Temperature Range Modifier Type
  ,                                       ! Dry-Bulb Temperature Range Modifier Schedule Name
  ASHRAEClearSky;                         ! Solar Model Indicator

OS:ComponentData,
  {b327db21-9b3b-40c6-944f-12871cb09ea9}, ! Handle
  Component Data 1,                       ! Name
  {be8d198c-89db-4f4c-9492-204797ebefcf}, ! UUID
  {9ec50fea-8ad8-4663-998d-b21d5ec0230b}, ! Version UUID
  1366306693,                             ! Creation Timestamp
  1366306693,                             ! Version Timestamp
  {d9c3f278-5484-43b5-9c88-babb675a22a0}; ! Name of Object 1

