
OS:Version,
  {e874c989-9732-4d0d-9a14-ad70f62b9b31}, ! Handle
  0.9.3;                                  ! Version Identifier

OS:SizingPeriod:DesignDay,
  {26011490-6543-43c9-bdfc-fa911370b750}, ! Handle
  Columbia Regional Airport Ann Clg 1% Condns Enth=>MDB, ! Name
  31.2,                                   ! Maximum Dry-Bulb Temperature {C}
  11,                                     ! Daily Dry-Bulb Temperature Range {deltaC}
  79200,                                  ! Humidity Indicating Conditions at Maximum Dry-Bulb {BasedOnField A3}
  98100,                                  ! Barometric Pressure {Pa}
  4.4,                                    ! Wind Speed {m/s}
  220,                                    ! Wind Direction {deg}
  0,                                      ! Sky Clearness
  0,                                      ! Rain Indicator
  0,                                      ! Snow Indicator
  21,                                     ! Day of Month
  7,                                      ! Month
  SummerDesignDay,                        ! Day Type
  0,                                      ! Daylight Saving Time Indicator
  Enthalpy,                               ! Humidity Indicating Type
  ,                                       ! Humidity Indicating Day Schedule Name
  DefaultMultipliers,                     ! Dry-Bulb Temperature Range Modifier Type
  ,                                       ! Dry-Bulb Temperature Range Modifier Schedule Name
  ASHRAETau,                              ! Solar Model Indicator
  ,                                       ! Beam Solar Day Schedule Name
  ,                                       ! Diffuse Solar Day Schedule Name
  0.448,                                  ! ASHRAE Taub {dimensionless}
  2.098;                                  ! ASHRAE Taud {dimensionless}

OS:ComponentData,
  {3d6bf7ea-51e2-4fce-9c4d-b1862d0e51a5}, ! Handle
  Component Data 1,                       ! Name
  {b0682d1f-c3b4-43c3-b763-36892eb3451c}, ! UUID
  {1b888237-bc1d-41bf-9813-65574ac0dc18}, ! Version UUID
  1366308494,                             ! Creation Timestamp
  1366308494,                             ! Version Timestamp
  {26011490-6543-43c9-bdfc-fa911370b750}; ! Name of Object 1

