
OS:Version,
  {c48ed915-d5d3-4829-abd5-3d7a0c266e2c}, ! Handle
  0.9.3;                                  ! Version Identifier

OS:SizingPeriod:DesignDay,
  {576b18f5-9fff-46f4-8785-58ff327c2165}, ! Handle
  Denver Intl Ap Ann Hum_n 99.6% Condns DP=>MCDB, ! Name
  -11.7,                                  ! Maximum Dry-Bulb Temperature {C}
  0,                                      ! Daily Dry-Bulb Temperature Range {deltaC}
  -21.5,                                  ! Humidity Indicating Conditions at Maximum Dry-Bulb {BasedOnField A3}
  83011,                                  ! Barometric Pressure {Pa}
  3.3,                                    ! Wind Speed {m/s}
  160,                                    ! Wind Direction {deg}
  0,                                      ! Sky Clearness
  0,                                      ! Rain Indicator
  0,                                      ! Snow Indicator
  21,                                     ! Day of Month
  12,                                     ! Month
  WinterDesignDay,                        ! Day Type
  0,                                      ! Daylight Saving Time Indicator
  Dewpoint,                               ! Humidity Indicating Type
  ,                                       ! Humidity Indicating Day Schedule Name
  DefaultMultipliers,                     ! Dry-Bulb Temperature Range Modifier Type
  ,                                       ! Dry-Bulb Temperature Range Modifier Schedule Name
  ASHRAEClearSky;                         ! Solar Model Indicator

OS:ComponentData,
  {a3d1bbc3-29f2-48bd-aaca-0b5a08b094f8}, ! Handle
  Component Data 1,                       ! Name
  {637ab5eb-387a-4131-be42-55184311ebf7}, ! UUID
  {71f440de-76aa-48c9-b0f5-f56ba8117dd8}, ! Version UUID
  1366306677,                             ! Creation Timestamp
  1366306677,                             ! Version Timestamp
  {576b18f5-9fff-46f4-8785-58ff327c2165}; ! Name of Object 1

