
OS:Version,
  {11e046db-1ae6-4193-9e4a-c04f34ee7472}, ! Handle
  0.9.3;                                  ! Version Identifier

OS:SizingPeriod:DesignDay,
  {d55729e4-70e3-44a7-981b-343d575c98df}, ! Handle
  GRAND_ISLAND Ann Clg 2% Condns DB=>MWB, ! Name
  32.1,                                   ! Maximum Dry-Bulb Temperature {C}
  12.2,                                   ! Daily Dry-Bulb Temperature Range {deltaC}
  22.2,                                   ! Humidity Indicating Conditions at Maximum Dry-Bulb {BasedOnField A3}
  94708,                                  ! Barometric Pressure {Pa}
  6.5,                                    ! Wind Speed {m/s}
  180,                                    ! Wind Direction {deg}
  0,                                      ! Sky Clearness
  0,                                      ! Rain Indicator
  0,                                      ! Snow Indicator
  21,                                     ! Day of Month
  7,                                      ! Month
  SummerDesignDay,                        ! Day Type
  0,                                      ! Daylight Saving Time Indicator
  Wetbulb,                                ! Humidity Indicating Type
  ,                                       ! Humidity Indicating Day Schedule Name
  DefaultMultipliers,                     ! Dry-Bulb Temperature Range Modifier Type
  ,                                       ! Dry-Bulb Temperature Range Modifier Schedule Name
  ASHRAETau,                              ! Solar Model Indicator
  ,                                       ! Beam Solar Day Schedule Name
  ,                                       ! Diffuse Solar Day Schedule Name
  0.405,                                  ! ASHRAE Taub {dimensionless}
  2.23;                                   ! ASHRAE Taud {dimensionless}

OS:ComponentData,
  {d62965b0-7388-400d-a6b5-c87c4f6dab68}, ! Handle
  Component Data 1,                       ! Name
  {baf5f9e5-c651-477f-a9a6-1ab082b23d2a}, ! UUID
  {1d0f100b-1f61-4417-831d-7e89b951a754}, ! Version UUID
  1366309122,                             ! Creation Timestamp
  1366309122,                             ! Version Timestamp
  {d55729e4-70e3-44a7-981b-343d575c98df}; ! Name of Object 1

