
OS:Version,
  {134c5802-49b7-4a37-9947-687904c5ebc7}, ! Handle
  0.9.3;                                  ! Version Identifier

OS:SizingPeriod:DesignDay,
  {fa4a0e46-b2fa-41b1-ad96-9a9275613c62}, ! Handle
  Aurora Municipal Ann Clg 2% Condns DB=>MWB, ! Name
  29.8,                                   ! Maximum Dry-Bulb Temperature {C}
  12,                                     ! Daily Dry-Bulb Temperature Range {deltaC}
  22.1,                                   ! Humidity Indicating Conditions at Maximum Dry-Bulb {BasedOnField A3}
  98769,                                  ! Barometric Pressure {Pa}
  4.9,                                    ! Wind Speed {m/s}
  230,                                    ! Wind Direction {deg}
  0,                                      ! Sky Clearness
  0,                                      ! Rain Indicator
  0,                                      ! Snow Indicator
  21,                                     ! Day of Month
  7,                                      ! Month
  SummerDesignDay,                        ! Day Type
  0,                                      ! Daylight Saving Time Indicator
  Wetbulb,                                ! Humidity Indicating Type
  ,                                       ! Humidity Indicating Day Schedule Name
  DefaultMultipliers,                     ! Dry-Bulb Temperature Range Modifier Type
  ,                                       ! Dry-Bulb Temperature Range Modifier Schedule Name
  ASHRAETau,                              ! Solar Model Indicator
  ,                                       ! Beam Solar Day Schedule Name
  ,                                       ! Diffuse Solar Day Schedule Name
  0.447,                                  ! ASHRAE Taub {dimensionless}
  2.079;                                  ! ASHRAE Taud {dimensionless}

OS:ComponentData,
  {e7633d36-11ed-432e-99ba-5deb2dbcb1a1}, ! Handle
  Component Data 1,                       ! Name
  {9b38ffe3-80f4-455f-87a4-b29425dea6b4}, ! UUID
  {be9ac6ca-d057-4cea-a62b-db6e18bdcfbd}, ! Version UUID
  1366307319,                             ! Creation Timestamp
  1366307319,                             ! Version Timestamp
  {fa4a0e46-b2fa-41b1-ad96-9a9275613c62}; ! Name of Object 1

