
OS:Version,
  {70ecf9bb-cd91-44ee-9c12-00da458a03cb}, ! Handle
  0.9.3;                                  ! Version Identifier

OS:SizingPeriod:DesignDay,
  {c9a53728-f404-46f4-a6cb-c9f2407488a3}, ! Handle
  Cody Muni  Awos Ann Clg .4% Condns DP=>MDB, ! Name
  19.7,                                   ! Maximum Dry-Bulb Temperature {C}
  14.2,                                   ! Daily Dry-Bulb Temperature Range {deltaC}
  12.6,                                   ! Humidity Indicating Conditions at Maximum Dry-Bulb {BasedOnField A3}
  84007,                                  ! Barometric Pressure {Pa}
  4.3,                                    ! Wind Speed {m/s}
  260,                                    ! Wind Direction {deg}
  0,                                      ! Sky Clearness
  0,                                      ! Rain Indicator
  0,                                      ! Snow Indicator
  21,                                     ! Day of Month
  7,                                      ! Month
  SummerDesignDay,                        ! Day Type
  0,                                      ! Daylight Saving Time Indicator
  Dewpoint,                               ! Humidity Indicating Type
  ,                                       ! Humidity Indicating Day Schedule Name
  DefaultMultipliers,                     ! Dry-Bulb Temperature Range Modifier Type
  ,                                       ! Dry-Bulb Temperature Range Modifier Schedule Name
  ASHRAETau,                              ! Solar Model Indicator
  ,                                       ! Beam Solar Day Schedule Name
  ,                                       ! Diffuse Solar Day Schedule Name
  0.42,                                   ! ASHRAE Taub {dimensionless}
  1.989;                                  ! ASHRAE Taud {dimensionless}

OS:ComponentData,
  {a3cc26ca-ab89-488d-babb-fc605f4942f9}, ! Handle
  Component Data 1,                       ! Name
  {428d683a-81c9-4545-bfe0-45af2f3abde5}, ! UUID
  {6ad413c8-5efa-4eb2-9b42-8cb5a74b2e35}, ! Version UUID
  1366311721,                             ! Creation Timestamp
  1366311721,                             ! Version Timestamp
  {c9a53728-f404-46f4-a6cb-c9f2407488a3}; ! Name of Object 1

