
OS:Version,
  {da06a481-47d0-4de4-b235-1f15797242ee}, ! Handle
  0.9.3;                                  ! Version Identifier

OS:SizingPeriod:DesignDay,
  {65e20b30-2e8c-4d2f-9a1d-ac0c7a912fc2}, ! Handle
  ALPENA Ann Htg Wind 99.6% Condns WS=>MCDB, ! Name
  -6.8,                                   ! Maximum Dry-Bulb Temperature {C}
  0,                                      ! Daily Dry-Bulb Temperature Range {deltaC}
  -6.8,                                   ! Humidity Indicating Conditions at Maximum Dry-Bulb {BasedOnField A3}
  98828,                                  ! Barometric Pressure {Pa}
  10.4,                                   ! Wind Speed {m/s}
  260,                                    ! Wind Direction {deg}
  0,                                      ! Sky Clearness
  0,                                      ! Rain Indicator
  0,                                      ! Snow Indicator
  21,                                     ! Day of Month
  1,                                      ! Month
  WinterDesignDay,                        ! Day Type
  0,                                      ! Daylight Saving Time Indicator
  Wetbulb,                                ! Humidity Indicating Type
  ,                                       ! Humidity Indicating Day Schedule Name
  DefaultMultipliers,                     ! Dry-Bulb Temperature Range Modifier Type
  ,                                       ! Dry-Bulb Temperature Range Modifier Schedule Name
  ASHRAEClearSky;                         ! Solar Model Indicator

OS:ComponentData,
  {0e3afe2b-9fd8-4b64-a1a6-d006b188ddfe}, ! Handle
  Component Data 1,                       ! Name
  {0ca4212e-165a-4f29-ade4-415315381e26}, ! UUID
  {9daafb05-2f30-411f-b30c-205dcfb62111}, ! Version UUID
  1366307938,                             ! Creation Timestamp
  1366307938,                             ! Version Timestamp
  {65e20b30-2e8c-4d2f-9a1d-ac0c7a912fc2}; ! Name of Object 1

