
OS:Version,
  {0db6e20f-7a66-4072-8c27-3b19b5945b45}, ! Handle
  0.9.3;                                  ! Version Identifier

OS:SizingPeriod:DesignDay,
  {694762ce-3492-402d-950d-d8ad6a46e142}, ! Handle
  LEWISTOWN Ann Hum_n 99.6% Condns DP=>MCDB, ! Name
  -25.5,                                  ! Maximum Dry-Bulb Temperature {C}
  0,                                      ! Daily Dry-Bulb Temperature Range {deltaC}
  -31.9,                                  ! Humidity Indicating Conditions at Maximum Dry-Bulb {BasedOnField A3}
  87034,                                  ! Barometric Pressure {Pa}
  3,                                      ! Wind Speed {m/s}
  120,                                    ! Wind Direction {deg}
  0,                                      ! Sky Clearness
  0,                                      ! Rain Indicator
  0,                                      ! Snow Indicator
  21,                                     ! Day of Month
  12,                                     ! Month
  WinterDesignDay,                        ! Day Type
  0,                                      ! Daylight Saving Time Indicator
  Dewpoint,                               ! Humidity Indicating Type
  ,                                       ! Humidity Indicating Day Schedule Name
  DefaultMultipliers,                     ! Dry-Bulb Temperature Range Modifier Type
  ,                                       ! Dry-Bulb Temperature Range Modifier Schedule Name
  ASHRAEClearSky;                         ! Solar Model Indicator

OS:ComponentData,
  {f475fc7c-6e39-4119-917d-1210e0c682ab}, ! Handle
  Component Data 1,                       ! Name
  {e799fd99-ca55-40ec-a61a-039f4744d10c}, ! UUID
  {1f6f2d67-7757-4419-a0c6-972d98d02b9c}, ! Version UUID
  1366308811,                             ! Creation Timestamp
  1366308811,                             ! Version Timestamp
  {694762ce-3492-402d-950d-d8ad6a46e142}; ! Name of Object 1

