
OS:Version,
  {bbb37534-5af4-4bf3-a1b3-53cf10dd2606}, ! Handle
  0.9.3;                                  ! Version Identifier

OS:SizingPeriod:DesignDay,
  {b9eebc58-13e4-4529-81bb-a167008f104b}, ! Handle
  Houghton Lake Roscommon Co Ar Ann Clg 2% Condns Enth=>MDB, ! Name
  25.9,                                   ! Maximum Dry-Bulb Temperature {C}
  12.8,                                   ! Daily Dry-Bulb Temperature Range {deltaC}
  64300,                                  ! Humidity Indicating Conditions at Maximum Dry-Bulb {BasedOnField A3}
  97179,                                  ! Barometric Pressure {Pa}
  4.2,                                    ! Wind Speed {m/s}
  240,                                    ! Wind Direction {deg}
  0,                                      ! Sky Clearness
  0,                                      ! Rain Indicator
  0,                                      ! Snow Indicator
  21,                                     ! Day of Month
  7,                                      ! Month
  SummerDesignDay,                        ! Day Type
  0,                                      ! Daylight Saving Time Indicator
  Enthalpy,                               ! Humidity Indicating Type
  ,                                       ! Humidity Indicating Day Schedule Name
  DefaultMultipliers,                     ! Dry-Bulb Temperature Range Modifier Type
  ,                                       ! Dry-Bulb Temperature Range Modifier Schedule Name
  ASHRAETau,                              ! Solar Model Indicator
  ,                                       ! Beam Solar Day Schedule Name
  ,                                       ! Diffuse Solar Day Schedule Name
  0.413,                                  ! ASHRAE Taub {dimensionless}
  2.189;                                  ! ASHRAE Taud {dimensionless}

OS:ComponentData,
  {829d6945-9c43-4d16-9041-55ec7ea973a7}, ! Handle
  Component Data 1,                       ! Name
  {36889fe0-e372-4a5a-b292-886cdd0bc735}, ! UUID
  {a82502c6-343f-46b0-b4d0-67769a02b861}, ! Version UUID
  1366308027,                             ! Creation Timestamp
  1366308027,                             ! Version Timestamp
  {b9eebc58-13e4-4529-81bb-a167008f104b}; ! Name of Object 1

