
OS:Version,
  {63b0cc4a-d9a1-495f-9732-428fee12966b}, ! Handle
  0.9.3;                                  ! Version Identifier

OS:SizingPeriod:DesignDay,
  {e08d4a4f-d1d0-47f6-91e8-8997a215c7e6}, ! Handle
  Atlanta Hartsfield Intl Ap Ann Clg 2% Condns DP=>MDB, ! Name
  26.3,                                   ! Maximum Dry-Bulb Temperature {C}
  9.5,                                    ! Daily Dry-Bulb Temperature Range {deltaC}
  22.5,                                   ! Humidity Indicating Conditions at Maximum Dry-Bulb {BasedOnField A3}
  97679,                                  ! Barometric Pressure {Pa}
  4,                                      ! Wind Speed {m/s}
  300,                                    ! Wind Direction {deg}
  0,                                      ! Sky Clearness
  0,                                      ! Rain Indicator
  0,                                      ! Snow Indicator
  21,                                     ! Day of Month
  7,                                      ! Month
  SummerDesignDay,                        ! Day Type
  0,                                      ! Daylight Saving Time Indicator
  Dewpoint,                               ! Humidity Indicating Type
  ,                                       ! Humidity Indicating Day Schedule Name
  DefaultMultipliers,                     ! Dry-Bulb Temperature Range Modifier Type
  ,                                       ! Dry-Bulb Temperature Range Modifier Schedule Name
  ASHRAETau,                              ! Solar Model Indicator
  ,                                       ! Beam Solar Day Schedule Name
  ,                                       ! Diffuse Solar Day Schedule Name
  0.556,                                  ! ASHRAE Taub {dimensionless}
  1.779;                                  ! ASHRAE Taud {dimensionless}

OS:ComponentData,
  {9ab43ef3-fd05-40f6-b2b2-87923bc3277c}, ! Handle
  Component Data 1,                       ! Name
  {837e2f35-b60f-409c-a863-ad4f9d610bee}, ! UUID
  {45f3daca-2b0b-4ece-8349-87782c03377c}, ! Version UUID
  1366306979,                             ! Creation Timestamp
  1366306979,                             ! Version Timestamp
  {e08d4a4f-d1d0-47f6-91e8-8997a215c7e6}; ! Name of Object 1

