
OS:Version,
  {31725869-f9ac-4a9d-9f7c-716a30d8b46f}, ! Handle
  0.9.3;                                  ! Version Identifier

OS:SizingPeriod:DesignDay,
  {8d972156-3054-472b-8e35-14afd2e40b65}, ! Handle
  Langley Afb Ann Htg Wind 99.6% Condns WS=>MCDB, ! Name
  4.9,                                    ! Maximum Dry-Bulb Temperature {C}
  0,                                      ! Daily Dry-Bulb Temperature Range {deltaC}
  4.9,                                    ! Humidity Indicating Conditions at Maximum Dry-Bulb {BasedOnField A3}
  101289,                                 ! Barometric Pressure {Pa}
  11.8,                                   ! Wind Speed {m/s}
  340,                                    ! Wind Direction {deg}
  0,                                      ! Sky Clearness
  0,                                      ! Rain Indicator
  0,                                      ! Snow Indicator
  21,                                     ! Day of Month
  1,                                      ! Month
  WinterDesignDay,                        ! Day Type
  0,                                      ! Daylight Saving Time Indicator
  Wetbulb,                                ! Humidity Indicating Type
  ,                                       ! Humidity Indicating Day Schedule Name
  DefaultMultipliers,                     ! Dry-Bulb Temperature Range Modifier Type
  ,                                       ! Dry-Bulb Temperature Range Modifier Schedule Name
  ASHRAEClearSky;                         ! Solar Model Indicator

OS:ComponentData,
  {69177c5d-e129-47b1-9b2e-e22ecc287ae5}, ! Handle
  Component Data 1,                       ! Name
  {4d96c9b8-692b-41c1-83b0-f7a8cc4ae3cd}, ! UUID
  {6a16d64a-7419-4b4e-98f8-02994fb02769}, ! Version UUID
  1366311069,                             ! Creation Timestamp
  1366311069,                             ! Version Timestamp
  {8d972156-3054-472b-8e35-14afd2e40b65}; ! Name of Object 1

