
OS:Version,
  {ed203db9-5503-4da6-83d4-26c53e46c44a}, ! Handle
  0.9.3;                                  ! Version Identifier

OS:SizingPeriod:DesignDay,
  {0260e00c-e23e-4593-800a-75e2a05a7306}, ! Handle
  Albany County Ap Ann Htg Wind 99.6% Condns WS=>MCDB, ! Name
  -5.4,                                   ! Maximum Dry-Bulb Temperature {C}
  0,                                      ! Daily Dry-Bulb Temperature Range {deltaC}
  -5.4,                                   ! Humidity Indicating Conditions at Maximum Dry-Bulb {BasedOnField A3}
  100320,                                 ! Barometric Pressure {Pa}
  12.1,                                   ! Wind Speed {m/s}
  300,                                    ! Wind Direction {deg}
  0,                                      ! Sky Clearness
  0,                                      ! Rain Indicator
  0,                                      ! Snow Indicator
  21,                                     ! Day of Month
  1,                                      ! Month
  WinterDesignDay,                        ! Day Type
  0,                                      ! Daylight Saving Time Indicator
  Wetbulb,                                ! Humidity Indicating Type
  ,                                       ! Humidity Indicating Day Schedule Name
  DefaultMultipliers,                     ! Dry-Bulb Temperature Range Modifier Type
  ,                                       ! Dry-Bulb Temperature Range Modifier Schedule Name
  ASHRAEClearSky;                         ! Solar Model Indicator

OS:ComponentData,
  {1e104576-abb0-4f7b-a1d9-b289502264c2}, ! Handle
  Component Data 1,                       ! Name
  {9038f162-8391-4ca9-8f30-439d2597531f}, ! UUID
  {5861aa81-d144-4ae8-9b93-d31e05b142d4}, ! Version UUID
  1366309584,                             ! Creation Timestamp
  1366309584,                             ! Version Timestamp
  {0260e00c-e23e-4593-800a-75e2a05a7306}; ! Name of Object 1

