
OS:Version,
  {64d6413d-46ff-4a4f-9a5c-b40fce589f66}, ! Handle
  0.9.3;                                  ! Version Identifier

OS:SizingPeriod:DesignDay,
  {9e5134a9-56ba-40a3-a59c-26c59bcc6ad9}, ! Handle
  Farmington Four Corners Regl Ann Clg 1% Condns DB=>MWB, ! Name
  33.5,                                   ! Maximum Dry-Bulb Temperature {C}
  16.1,                                   ! Daily Dry-Bulb Temperature Range {deltaC}
  15.4,                                   ! Humidity Indicating Conditions at Maximum Dry-Bulb {BasedOnField A3}
  82756,                                  ! Barometric Pressure {Pa}
  4.9,                                    ! Wind Speed {m/s}
  240,                                    ! Wind Direction {deg}
  0,                                      ! Sky Clearness
  0,                                      ! Rain Indicator
  0,                                      ! Snow Indicator
  21,                                     ! Day of Month
  7,                                      ! Month
  SummerDesignDay,                        ! Day Type
  0,                                      ! Daylight Saving Time Indicator
  Wetbulb,                                ! Humidity Indicating Type
  ,                                       ! Humidity Indicating Day Schedule Name
  DefaultMultipliers,                     ! Dry-Bulb Temperature Range Modifier Type
  ,                                       ! Dry-Bulb Temperature Range Modifier Schedule Name
  ASHRAETau,                              ! Solar Model Indicator
  ,                                       ! Beam Solar Day Schedule Name
  ,                                       ! Diffuse Solar Day Schedule Name
  0.402,                                  ! ASHRAE Taub {dimensionless}
  2.092;                                  ! ASHRAE Taud {dimensionless}

OS:ComponentData,
  {eea69a72-2942-4f53-8cdb-782f5ba51cdb}, ! Handle
  Component Data 1,                       ! Name
  {179d2e24-99fd-4374-a5de-101722ac5456}, ! UUID
  {f4a343d3-9ac4-4ea2-a4f7-26342f0b5519}, ! Version UUID
  1366309403,                             ! Creation Timestamp
  1366309403,                             ! Version Timestamp
  {9e5134a9-56ba-40a3-a59c-26c59bcc6ad9}; ! Name of Object 1

