
OS:Version,
  {0b85ce29-2e2f-4e15-948d-d6d8f7f2e361}, ! Handle
  0.9.3;                                  ! Version Identifier

OS:SizingPeriod:DesignDay,
  {ae17b8cd-3157-4b21-90c3-f3c43dcd2dd2}, ! Handle
  Fallon Naas Ann Htg 99% Condns DB,      ! Name
  -9.4,                                   ! Maximum Dry-Bulb Temperature {C}
  0,                                      ! Daily Dry-Bulb Temperature Range {deltaC}
  -9.4,                                   ! Humidity Indicating Conditions at Maximum Dry-Bulb {BasedOnField A3}
  87726,                                  ! Barometric Pressure {Pa}
  0.9,                                    ! Wind Speed {m/s}
  160,                                    ! Wind Direction {deg}
  0,                                      ! Sky Clearness
  0,                                      ! Rain Indicator
  0,                                      ! Snow Indicator
  21,                                     ! Day of Month
  12,                                     ! Month
  WinterDesignDay,                        ! Day Type
  0,                                      ! Daylight Saving Time Indicator
  Wetbulb,                                ! Humidity Indicating Type
  ,                                       ! Humidity Indicating Day Schedule Name
  DefaultMultipliers,                     ! Dry-Bulb Temperature Range Modifier Type
  ,                                       ! Dry-Bulb Temperature Range Modifier Schedule Name
  ASHRAEClearSky;                         ! Solar Model Indicator

OS:ComponentData,
  {bd5272ec-5bc1-4619-b039-a194e9de8286}, ! Handle
  Component Data 1,                       ! Name
  {b990e955-aa95-4273-a140-f624339a82e2}, ! UUID
  {a10885f8-8bfe-47e8-93aa-a65c037f6fd4}, ! Version UUID
  1366309491,                             ! Creation Timestamp
  1366309491,                             ! Version Timestamp
  {ae17b8cd-3157-4b21-90c3-f3c43dcd2dd2}; ! Name of Object 1

