
OS:Version,
  {e2408b25-f586-4b83-8ebc-14e8fcb14adc}, ! Handle
  0.9.3;                                  ! Version Identifier

OS:SizingPeriod:DesignDay,
  {fb666c4c-83dd-4da8-a00e-4864a27dedfc}, ! Handle
  Harrisburg Ann Htg 99% Condns DB,       ! Name
  -10.4,                                  ! Maximum Dry-Bulb Temperature {C}
  0,                                      ! Daily Dry-Bulb Temperature Range {deltaC}
  -10.4,                                  ! Humidity Indicating Conditions at Maximum Dry-Bulb {BasedOnField A3}
  100201,                                 ! Barometric Pressure {Pa}
  3.5,                                    ! Wind Speed {m/s}
  270,                                    ! Wind Direction {deg}
  0,                                      ! Sky Clearness
  0,                                      ! Rain Indicator
  0,                                      ! Snow Indicator
  21,                                     ! Day of Month
  1,                                      ! Month
  WinterDesignDay,                        ! Day Type
  0,                                      ! Daylight Saving Time Indicator
  Wetbulb,                                ! Humidity Indicating Type
  ,                                       ! Humidity Indicating Day Schedule Name
  DefaultMultipliers,                     ! Dry-Bulb Temperature Range Modifier Type
  ,                                       ! Dry-Bulb Temperature Range Modifier Schedule Name
  ASHRAEClearSky;                         ! Solar Model Indicator

OS:ComponentData,
  {a62d446c-34c4-461e-9679-608efb1bb7d9}, ! Handle
  Component Data 1,                       ! Name
  {3069c127-483b-4482-8125-2cd95a7d7361}, ! UUID
  {fde326f9-d8bc-41f8-95bd-205c253ee91e}, ! Version UUID
  1366310182,                             ! Creation Timestamp
  1366310182,                             ! Version Timestamp
  {fb666c4c-83dd-4da8-a00e-4864a27dedfc}; ! Name of Object 1

