
OS:Version,
  {62fe7ba9-387e-473c-96b4-440f751985b1}, ! Handle
  0.9.3;                                  ! Version Identifier

OS:SizingPeriod:DesignDay,
  {81cfe0e9-9779-449f-9e0f-0592a6c16e76}, ! Handle
  Honolulu Intl Arpt Ann Clg 2% Condns WB=>MDB, ! Name
  28.7,                                   ! Maximum Dry-Bulb Temperature {C}
  7.1,                                    ! Daily Dry-Bulb Temperature Range {deltaC}
  24.2,                                   ! Humidity Indicating Conditions at Maximum Dry-Bulb {BasedOnField A3}
  101301,                                 ! Barometric Pressure {Pa}
  6.7,                                    ! Wind Speed {m/s}
  60,                                     ! Wind Direction {deg}
  0,                                      ! Sky Clearness
  0,                                      ! Rain Indicator
  0,                                      ! Snow Indicator
  21,                                     ! Day of Month
  8,                                      ! Month
  SummerDesignDay,                        ! Day Type
  0,                                      ! Daylight Saving Time Indicator
  Wetbulb,                                ! Humidity Indicating Type
  ,                                       ! Humidity Indicating Day Schedule Name
  DefaultMultipliers,                     ! Dry-Bulb Temperature Range Modifier Type
  ,                                       ! Dry-Bulb Temperature Range Modifier Schedule Name
  ASHRAETau,                              ! Solar Model Indicator
  ,                                       ! Beam Solar Day Schedule Name
  ,                                       ! Diffuse Solar Day Schedule Name
  0.382,                                  ! ASHRAE Taub {dimensionless}
  2.521;                                  ! ASHRAE Taud {dimensionless}

OS:ComponentData,
  {419bf665-1587-40c4-adb9-644620b61a03}, ! Handle
  Component Data 1,                       ! Name
  {09b04208-9d84-4f62-9e6d-6ce29ef87074}, ! UUID
  {0f32f473-7caa-4bb2-b3f4-40677df33844}, ! Version UUID
  1366307094,                             ! Creation Timestamp
  1366307094,                             ! Version Timestamp
  {81cfe0e9-9779-449f-9e0f-0592a6c16e76}; ! Name of Object 1

