
OS:Version,
  {70362840-e67c-487a-ad46-a6f67216c6e7}, ! Handle
  0.9.3;                                  ! Version Identifier

OS:SizingPeriod:DesignDay,
  {691d2191-674b-4b7b-a870-411c11f9a7f1}, ! Handle
  LYNCHBURG Ann Clg 2% Condns DP=>MDB,    ! Name
  25.9,                                   ! Maximum Dry-Bulb Temperature {C}
  10.7,                                   ! Daily Dry-Bulb Temperature Range {deltaC}
  21.9,                                   ! Humidity Indicating Conditions at Maximum Dry-Bulb {BasedOnField A3}
  98018,                                  ! Barometric Pressure {Pa}
  3.3,                                    ! Wind Speed {m/s}
  240,                                    ! Wind Direction {deg}
  0,                                      ! Sky Clearness
  0,                                      ! Rain Indicator
  0,                                      ! Snow Indicator
  21,                                     ! Day of Month
  7,                                      ! Month
  SummerDesignDay,                        ! Day Type
  0,                                      ! Daylight Saving Time Indicator
  Dewpoint,                               ! Humidity Indicating Type
  ,                                       ! Humidity Indicating Day Schedule Name
  DefaultMultipliers,                     ! Dry-Bulb Temperature Range Modifier Type
  ,                                       ! Dry-Bulb Temperature Range Modifier Schedule Name
  ASHRAETau,                              ! Solar Model Indicator
  ,                                       ! Beam Solar Day Schedule Name
  ,                                       ! Diffuse Solar Day Schedule Name
  0.531,                                  ! ASHRAE Taub {dimensionless}
  1.818;                                  ! ASHRAE Taud {dimensionless}

OS:ComponentData,
  {56efec1b-5a28-45e6-867c-0f1bc781e71e}, ! Handle
  Component Data 1,                       ! Name
  {c555a935-c099-4228-8ae2-c4b3492ea7cf}, ! UUID
  {4a58e565-f313-479f-8691-da67270ef73c}, ! Version UUID
  1366311084,                             ! Creation Timestamp
  1366311084,                             ! Version Timestamp
  {691d2191-674b-4b7b-a870-411c11f9a7f1}; ! Name of Object 1

