
OS:Version,
  {a3df97f1-c70e-4f4f-bbcd-694abf12340d}, ! Handle
  0.9.3;                                  ! Version Identifier

OS:SizingPeriod:DesignDay,
  {f0e4dbeb-316d-4e97-918b-1b1e782a6eb3}, ! Handle
  Abilene Dyess Afb Ann Clg 2% Condns DB=>MWB, ! Name
  36.1,                                   ! Maximum Dry-Bulb Temperature {C}
  12.4,                                   ! Daily Dry-Bulb Temperature Range {deltaC}
  22.2,                                   ! Humidity Indicating Conditions at Maximum Dry-Bulb {BasedOnField A3}
  94947,                                  ! Barometric Pressure {Pa}
  4.5,                                    ! Wind Speed {m/s}
  170,                                    ! Wind Direction {deg}
  0,                                      ! Sky Clearness
  0,                                      ! Rain Indicator
  0,                                      ! Snow Indicator
  21,                                     ! Day of Month
  7,                                      ! Month
  SummerDesignDay,                        ! Day Type
  0,                                      ! Daylight Saving Time Indicator
  Wetbulb,                                ! Humidity Indicating Type
  ,                                       ! Humidity Indicating Day Schedule Name
  DefaultMultipliers,                     ! Dry-Bulb Temperature Range Modifier Type
  ,                                       ! Dry-Bulb Temperature Range Modifier Schedule Name
  ASHRAETau,                              ! Solar Model Indicator
  ,                                       ! Beam Solar Day Schedule Name
  ,                                       ! Diffuse Solar Day Schedule Name
  0.427,                                  ! ASHRAE Taub {dimensionless}
  2.168;                                  ! ASHRAE Taud {dimensionless}

OS:ComponentData,
  {f96987a1-4785-43d9-86af-66c5547d4450}, ! Handle
  Component Data 1,                       ! Name
  {0fe49f48-d573-42fc-a3c9-dc627cfe1ac9}, ! UUID
  {857f038a-aba3-4ef8-8cf2-9ed8dfaad098}, ! Version UUID
  1366310546,                             ! Creation Timestamp
  1366310546,                             ! Version Timestamp
  {f0e4dbeb-316d-4e97-918b-1b1e782a6eb3}; ! Name of Object 1

