
OS:Version,
  {9ccc9527-06f8-4b62-bc0b-58d3089cd76e}, ! Handle
  0.9.3;                                  ! Version Identifier

OS:SizingPeriod:DesignDay,
  {c0453626-a69d-43fa-8afb-c57729c8a68b}, ! Handle
  ELKINS Ann Clg 2% Condns Enth=>MDB,     ! Name
  26.3,                                   ! Maximum Dry-Bulb Temperature {C}
  12,                                     ! Daily Dry-Bulb Temperature Range {deltaC}
  66000,                                  ! Humidity Indicating Conditions at Maximum Dry-Bulb {BasedOnField A3}
  94390,                                  ! Barometric Pressure {Pa}
  3.2,                                    ! Wind Speed {m/s}
  300,                                    ! Wind Direction {deg}
  0,                                      ! Sky Clearness
  0,                                      ! Rain Indicator
  0,                                      ! Snow Indicator
  21,                                     ! Day of Month
  7,                                      ! Month
  SummerDesignDay,                        ! Day Type
  0,                                      ! Daylight Saving Time Indicator
  Enthalpy,                               ! Humidity Indicating Type
  ,                                       ! Humidity Indicating Day Schedule Name
  DefaultMultipliers,                     ! Dry-Bulb Temperature Range Modifier Type
  ,                                       ! Dry-Bulb Temperature Range Modifier Schedule Name
  ASHRAETau,                              ! Solar Model Indicator
  ,                                       ! Beam Solar Day Schedule Name
  ,                                       ! Diffuse Solar Day Schedule Name
  0.489,                                  ! ASHRAE Taub {dimensionless}
  1.911;                                  ! ASHRAE Taud {dimensionless}

OS:ComponentData,
  {16011392-cfbd-4b20-b49a-5f25ce2c4db4}, ! Handle
  Component Data 1,                       ! Name
  {b864f5f2-1fce-4f87-b457-8c9d637e2649}, ! UUID
  {b660e34f-7499-4a75-86fb-2c5d19de37c4}, ! Version UUID
  1366311648,                             ! Creation Timestamp
  1366311648,                             ! Version Timestamp
  {c0453626-a69d-43fa-8afb-c57729c8a68b}; ! Name of Object 1

