
OS:Version,
  {d56bf747-17ea-4389-ab81-300941f741ad}, ! Handle
  0.9.3;                                  ! Version Identifier

OS:SizingPeriod:DesignDay,
  {6860a916-f489-4c24-90b7-6dea63c51955}, ! Handle
  Abilene Ann Clg 1% Condns WB=>MDB,      ! Name
  31.2,                                   ! Maximum Dry-Bulb Temperature {C}
  11.6,                                   ! Daily Dry-Bulb Temperature Range {deltaC}
  23.6,                                   ! Humidity Indicating Conditions at Maximum Dry-Bulb {BasedOnField A3}
  94935,                                  ! Barometric Pressure {Pa}
  5.3,                                    ! Wind Speed {m/s}
  160,                                    ! Wind Direction {deg}
  0,                                      ! Sky Clearness
  0,                                      ! Rain Indicator
  0,                                      ! Snow Indicator
  21,                                     ! Day of Month
  7,                                      ! Month
  SummerDesignDay,                        ! Day Type
  0,                                      ! Daylight Saving Time Indicator
  Wetbulb,                                ! Humidity Indicating Type
  ,                                       ! Humidity Indicating Day Schedule Name
  DefaultMultipliers,                     ! Dry-Bulb Temperature Range Modifier Type
  ,                                       ! Dry-Bulb Temperature Range Modifier Schedule Name
  ASHRAETau,                              ! Solar Model Indicator
  ,                                       ! Beam Solar Day Schedule Name
  ,                                       ! Diffuse Solar Day Schedule Name
  0.426,                                  ! ASHRAE Taub {dimensionless}
  2.172;                                  ! ASHRAE Taud {dimensionless}

OS:ComponentData,
  {6c50bdf0-3121-41ab-bc2e-2e5b2ab99a14}, ! Handle
  Component Data 1,                       ! Name
  {c5ff93d3-3550-4baa-af14-b03cd0faeed4}, ! UUID
  {244c1b7f-bac9-4952-b72d-c807395321a8}, ! Version UUID
  1366310555,                             ! Creation Timestamp
  1366310555,                             ! Version Timestamp
  {6860a916-f489-4c24-90b7-6dea63c51955}; ! Name of Object 1

