
OS:Version,
  {e76bd43f-82d4-4964-9f2a-5477e876434e}, ! Handle
  0.9.3;                                  ! Version Identifier

OS:SizingPeriod:DesignDay,
  {43defed5-d575-4f1c-a97c-98301273524e}, ! Handle
  Daytona Beach Ann Clg 2% Condns DB=>MWB, ! Name
  31.8,                                   ! Maximum Dry-Bulb Temperature {C}
  9,                                      ! Daily Dry-Bulb Temperature Range {deltaC}
  24.8,                                   ! Humidity Indicating Conditions at Maximum Dry-Bulb {BasedOnField A3}
  101193,                                 ! Barometric Pressure {Pa}
  4.4,                                    ! Wind Speed {m/s}
  230,                                    ! Wind Direction {deg}
  0,                                      ! Sky Clearness
  0,                                      ! Rain Indicator
  0,                                      ! Snow Indicator
  21,                                     ! Day of Month
  7,                                      ! Month
  SummerDesignDay,                        ! Day Type
  0,                                      ! Daylight Saving Time Indicator
  Wetbulb,                                ! Humidity Indicating Type
  ,                                       ! Humidity Indicating Day Schedule Name
  DefaultMultipliers,                     ! Dry-Bulb Temperature Range Modifier Type
  ,                                       ! Dry-Bulb Temperature Range Modifier Schedule Name
  ASHRAETau,                              ! Solar Model Indicator
  ,                                       ! Beam Solar Day Schedule Name
  ,                                       ! Diffuse Solar Day Schedule Name
  0.512,                                  ! ASHRAE Taub {dimensionless}
  1.951;                                  ! ASHRAE Taud {dimensionless}

OS:ComponentData,
  {0e37512d-110d-47d3-ae7d-2a3a64466da1}, ! Handle
  Component Data 1,                       ! Name
  {aaea4f3b-6696-486c-a42a-c20f01150e11}, ! UUID
  {fe5fa9ed-91a5-4ed4-b11f-e29329615060}, ! Version UUID
  1366306790,                             ! Creation Timestamp
  1366306790,                             ! Version Timestamp
  {43defed5-d575-4f1c-a97c-98301273524e}; ! Name of Object 1

