
OS:Version,
  {984dbb3b-953b-4b77-bdcf-190d66c50e7a}, ! Handle
  0.9.3;                                  ! Version Identifier

OS:SizingPeriod:DesignDay,
  {b89ff19c-b210-4df6-a831-cd5c2364116e}, ! Handle
  Kearney Muni  Awos Ann Clg .4% Condns Enth=>MDB, ! Name
  31,                                     ! Maximum Dry-Bulb Temperature {C}
  12.2,                                   ! Daily Dry-Bulb Temperature Range {deltaC}
  78200,                                  ! Humidity Indicating Conditions at Maximum Dry-Bulb {BasedOnField A3}
  93767,                                  ! Barometric Pressure {Pa}
  6.4,                                    ! Wind Speed {m/s}
  190,                                    ! Wind Direction {deg}
  0,                                      ! Sky Clearness
  0,                                      ! Rain Indicator
  0,                                      ! Snow Indicator
  21,                                     ! Day of Month
  7,                                      ! Month
  SummerDesignDay,                        ! Day Type
  0,                                      ! Daylight Saving Time Indicator
  Enthalpy,                               ! Humidity Indicating Type
  ,                                       ! Humidity Indicating Day Schedule Name
  DefaultMultipliers,                     ! Dry-Bulb Temperature Range Modifier Type
  ,                                       ! Dry-Bulb Temperature Range Modifier Schedule Name
  ASHRAETau,                              ! Solar Model Indicator
  ,                                       ! Beam Solar Day Schedule Name
  ,                                       ! Diffuse Solar Day Schedule Name
  0.404,                                  ! ASHRAE Taub {dimensionless}
  2.221;                                  ! ASHRAE Taud {dimensionless}

OS:ComponentData,
  {caa34dea-57cd-4e16-9d18-bf939e41bd45}, ! Handle
  Component Data 1,                       ! Name
  {873153a1-fb21-4f0d-bf83-36d83ec9e5c0}, ! UUID
  {1127706a-877a-4a99-ac43-385675285532}, ! Version UUID
  1366309136,                             ! Creation Timestamp
  1366309136,                             ! Version Timestamp
  {b89ff19c-b210-4df6-a831-cd5c2364116e}; ! Name of Object 1

