
OS:Version,
  {02979c54-3a14-4c75-8ceb-487508cdee28}, ! Handle
  0.9.3;                                  ! Version Identifier

OS:SizingPeriod:DesignDay,
  {4580b8ca-d6a4-42dc-89de-a1339e51020f}, ! Handle
  Hunter Aaf Ann Clg .4% Condns DP=>MDB,  ! Name
  28.7,                                   ! Maximum Dry-Bulb Temperature {C}
  9.8,                                    ! Daily Dry-Bulb Temperature Range {deltaC}
  26.2,                                   ! Humidity Indicating Conditions at Maximum Dry-Bulb {BasedOnField A3}
  101169,                                 ! Barometric Pressure {Pa}
  3.5,                                    ! Wind Speed {m/s}
  260,                                    ! Wind Direction {deg}
  0,                                      ! Sky Clearness
  0,                                      ! Rain Indicator
  0,                                      ! Snow Indicator
  21,                                     ! Day of Month
  7,                                      ! Month
  SummerDesignDay,                        ! Day Type
  0,                                      ! Daylight Saving Time Indicator
  Dewpoint,                               ! Humidity Indicating Type
  ,                                       ! Humidity Indicating Day Schedule Name
  DefaultMultipliers,                     ! Dry-Bulb Temperature Range Modifier Type
  ,                                       ! Dry-Bulb Temperature Range Modifier Schedule Name
  ASHRAETau,                              ! Solar Model Indicator
  ,                                       ! Beam Solar Day Schedule Name
  ,                                       ! Diffuse Solar Day Schedule Name
  0.556,                                  ! ASHRAE Taub {dimensionless}
  1.82;                                   ! ASHRAE Taud {dimensionless}

OS:ComponentData,
  {d7857e63-b364-4f89-86bf-42699a566c5c}, ! Handle
  Component Data 1,                       ! Name
  {849b97ff-9f10-44d5-bb2a-5f28b2ced3e1}, ! UUID
  {23e74506-e435-45ed-9899-aed76acb6544}, ! Version UUID
  1366307040,                             ! Creation Timestamp
  1366307040,                             ! Version Timestamp
  {4580b8ca-d6a4-42dc-89de-a1339e51020f}; ! Name of Object 1

