
OS:Version,
  {ab22e500-e24d-4c09-b42c-0349c6b9b88d}, ! Handle
  0.9.3;                                  ! Version Identifier

OS:SizingPeriod:DesignDay,
  {51c07122-2976-475e-b280-81f12f2ce8a0}, ! Handle
  Des Moines Ann Clg 1% Condns DB=>MWB,   ! Name
  32.3,                                   ! Maximum Dry-Bulb Temperature {C}
  10.1,                                   ! Daily Dry-Bulb Temperature Range {deltaC}
  23.9,                                   ! Humidity Indicating Conditions at Maximum Dry-Bulb {BasedOnField A3}
  97843,                                  ! Barometric Pressure {Pa}
  5.4,                                    ! Wind Speed {m/s}
  180,                                    ! Wind Direction {deg}
  0,                                      ! Sky Clearness
  0,                                      ! Rain Indicator
  0,                                      ! Snow Indicator
  21,                                     ! Day of Month
  7,                                      ! Month
  SummerDesignDay,                        ! Day Type
  0,                                      ! Daylight Saving Time Indicator
  Wetbulb,                                ! Humidity Indicating Type
  ,                                       ! Humidity Indicating Day Schedule Name
  DefaultMultipliers,                     ! Dry-Bulb Temperature Range Modifier Type
  ,                                       ! Dry-Bulb Temperature Range Modifier Schedule Name
  ASHRAETau,                              ! Solar Model Indicator
  ,                                       ! Beam Solar Day Schedule Name
  ,                                       ! Diffuse Solar Day Schedule Name
  0.425,                                  ! ASHRAE Taub {dimensionless}
  2.17;                                   ! ASHRAE Taud {dimensionless}

OS:ComponentData,
  {3a21a5f6-b742-4fd0-9381-64150bb83a74}, ! Handle
  Component Data 1,                       ! Name
  {5d55fb57-8078-4c0d-9235-c0c11803afc5}, ! UUID
  {5a332340-cf76-4375-b913-d337d1a27194}, ! Version UUID
  1366307173,                             ! Creation Timestamp
  1366307173,                             ! Version Timestamp
  {51c07122-2976-475e-b280-81f12f2ce8a0}; ! Name of Object 1

