
OS:Version,
  {755e0506-10b3-4410-8383-6e02e3389de2}, ! Handle
  0.9.3;                                  ! Version Identifier

OS:SizingPeriod:DesignDay,
  {4f09881e-9fbc-4af6-a34a-7264f35da785}, ! Handle
  Kansas City IntL Arpt Ann Clg 2% Condns DP=>MDB, ! Name
  28.3,                                   ! Maximum Dry-Bulb Temperature {C}
  10.5,                                   ! Daily Dry-Bulb Temperature Range {deltaC}
  23,                                     ! Humidity Indicating Conditions at Maximum Dry-Bulb {BasedOnField A3}
  97796,                                  ! Barometric Pressure {Pa}
  5.7,                                    ! Wind Speed {m/s}
  180,                                    ! Wind Direction {deg}
  0,                                      ! Sky Clearness
  0,                                      ! Rain Indicator
  0,                                      ! Snow Indicator
  21,                                     ! Day of Month
  7,                                      ! Month
  SummerDesignDay,                        ! Day Type
  0,                                      ! Daylight Saving Time Indicator
  Dewpoint,                               ! Humidity Indicating Type
  ,                                       ! Humidity Indicating Day Schedule Name
  DefaultMultipliers,                     ! Dry-Bulb Temperature Range Modifier Type
  ,                                       ! Dry-Bulb Temperature Range Modifier Schedule Name
  ASHRAETau,                              ! Solar Model Indicator
  ,                                       ! Beam Solar Day Schedule Name
  ,                                       ! Diffuse Solar Day Schedule Name
  0.438,                                  ! ASHRAE Taub {dimensionless}
  2.146;                                  ! ASHRAE Taud {dimensionless}

OS:ComponentData,
  {7b6123e0-6c15-4d1d-ba7d-04c8dc73a0e8}, ! Handle
  Component Data 1,                       ! Name
  {9fe1bdbb-db5a-4283-ba67-b7321ad658f7}, ! UUID
  {31b31100-70af-4bd1-a4db-2d4742420bc6}, ! Version UUID
  1366308534,                             ! Creation Timestamp
  1366308534,                             ! Version Timestamp
  {4f09881e-9fbc-4af6-a34a-7264f35da785}; ! Name of Object 1

