
OS:Version,
  {77aecc01-6cd9-4124-b0c2-c165c2cf8aae}, ! Handle
  0.9.3;                                  ! Version Identifier

OS:SizingPeriod:DesignDay,
  {10c93236-cc01-4e60-a3fe-f843f30955e2}, ! Handle
  GRAND_RAPIDS Ann Clg 1% Condns DP=>MDB, ! Name
  26.4,                                   ! Maximum Dry-Bulb Temperature {C}
  11.1,                                   ! Daily Dry-Bulb Temperature Range {deltaC}
  22.1,                                   ! Humidity Indicating Conditions at Maximum Dry-Bulb {BasedOnField A3}
  98416,                                  ! Barometric Pressure {Pa}
  5.8,                                    ! Wind Speed {m/s}
  240,                                    ! Wind Direction {deg}
  0,                                      ! Sky Clearness
  0,                                      ! Rain Indicator
  0,                                      ! Snow Indicator
  21,                                     ! Day of Month
  7,                                      ! Month
  SummerDesignDay,                        ! Day Type
  0,                                      ! Daylight Saving Time Indicator
  Dewpoint,                               ! Humidity Indicating Type
  ,                                       ! Humidity Indicating Day Schedule Name
  DefaultMultipliers,                     ! Dry-Bulb Temperature Range Modifier Type
  ,                                       ! Dry-Bulb Temperature Range Modifier Schedule Name
  ASHRAETau,                              ! Solar Model Indicator
  ,                                       ! Beam Solar Day Schedule Name
  ,                                       ! Diffuse Solar Day Schedule Name
  0.424,                                  ! ASHRAE Taub {dimensionless}
  2.173;                                  ! ASHRAE Taud {dimensionless}

OS:ComponentData,
  {6e2c465f-27c9-4cc9-af03-da2ffd6d06ca}, ! Handle
  Component Data 1,                       ! Name
  {9204735c-b33e-4e13-bbca-3e4d533e957e}, ! UUID
  {044068cb-8a20-4bdd-96c7-0e572e28e361}, ! Version UUID
  1366308018,                             ! Creation Timestamp
  1366308018,                             ! Version Timestamp
  {10c93236-cc01-4e60-a3fe-f843f30955e2}; ! Name of Object 1

