
OS:Version,
  {736f97ce-8d6a-44dc-8732-70559f604594}, ! Handle
  0.9.3;                                  ! Version Identifier

OS:SizingPeriod:DesignDay,
  {90e041f2-7a84-47f4-a527-2cc3b948bcd5}, ! Handle
  Glendive Awos Ann Clg .4% Condns DB=>MWB, ! Name
  34.9,                                   ! Maximum Dry-Bulb Temperature {C}
  14.4,                                   ! Daily Dry-Bulb Temperature Range {deltaC}
  18.4,                                   ! Humidity Indicating Conditions at Maximum Dry-Bulb {BasedOnField A3}
  92645,                                  ! Barometric Pressure {Pa}
  4.9,                                    ! Wind Speed {m/s}
  150,                                    ! Wind Direction {deg}
  0,                                      ! Sky Clearness
  0,                                      ! Rain Indicator
  0,                                      ! Snow Indicator
  21,                                     ! Day of Month
  7,                                      ! Month
  SummerDesignDay,                        ! Day Type
  0,                                      ! Daylight Saving Time Indicator
  Wetbulb,                                ! Humidity Indicating Type
  ,                                       ! Humidity Indicating Day Schedule Name
  DefaultMultipliers,                     ! Dry-Bulb Temperature Range Modifier Type
  ,                                       ! Dry-Bulb Temperature Range Modifier Schedule Name
  ASHRAETau,                              ! Solar Model Indicator
  ,                                       ! Beam Solar Day Schedule Name
  ,                                       ! Diffuse Solar Day Schedule Name
  0.397,                                  ! ASHRAE Taub {dimensionless}
  2.163;                                  ! ASHRAE Taud {dimensionless}

OS:ComponentData,
  {f5f5f9ed-0ef5-4f3d-8ec0-9d76c0c06474}, ! Handle
  Component Data 1,                       ! Name
  {e8f2eac1-0d8b-4edd-a335-91ee87506033}, ! UUID
  {41a92d6c-797e-485a-8cac-b4ba57272c68}, ! Version UUID
  1366308767,                             ! Creation Timestamp
  1366308767,                             ! Version Timestamp
  {90e041f2-7a84-47f4-a527-2cc3b948bcd5}; ! Name of Object 1

