
OS:Version,
  {d4e2b938-bf73-4415-b058-51acf65e4fb0}, ! Handle
  0.9.3;                                  ! Version Identifier

OS:SizingPeriod:DesignDay,
  {f65449d1-adf1-405a-b232-29c0f2afafd7}, ! Handle
  Burns Municipal Arpt  Uo Ann Clg .4% Condns WB=>MDB, ! Name
  29.8,                                   ! Maximum Dry-Bulb Temperature {C}
  20.6,                                   ! Daily Dry-Bulb Temperature Range {deltaC}
  18,                                     ! Humidity Indicating Conditions at Maximum Dry-Bulb {BasedOnField A3}
  86959,                                  ! Barometric Pressure {Pa}
  3.4,                                    ! Wind Speed {m/s}
  200,                                    ! Wind Direction {deg}
  0,                                      ! Sky Clearness
  0,                                      ! Rain Indicator
  0,                                      ! Snow Indicator
  21,                                     ! Day of Month
  7,                                      ! Month
  SummerDesignDay,                        ! Day Type
  0,                                      ! Daylight Saving Time Indicator
  Wetbulb,                                ! Humidity Indicating Type
  ,                                       ! Humidity Indicating Day Schedule Name
  DefaultMultipliers,                     ! Dry-Bulb Temperature Range Modifier Type
  ,                                       ! Dry-Bulb Temperature Range Modifier Schedule Name
  ASHRAETau,                              ! Solar Model Indicator
  ,                                       ! Beam Solar Day Schedule Name
  ,                                       ! Diffuse Solar Day Schedule Name
  0.372,                                  ! ASHRAE Taub {dimensionless}
  2.219;                                  ! ASHRAE Taud {dimensionless}

