
OS:Version,
  {cb0f9bbe-d0d1-4b57-b58e-e081d2c9fed1}, ! Handle
  0.9.3;                                  ! Version Identifier

OS:SizingPeriod:DesignDay,
  {c430bfaa-3f2e-4cd0-8854-482fe7d4b488}, ! Handle
  Burns Municipal Arpt  Uo Ann Clg .4% Condns WB=>MDB, ! Name
  29.8,                                   ! Maximum Dry-Bulb Temperature {C}
  20.6,                                   ! Daily Dry-Bulb Temperature Range {deltaC}
  18,                                     ! Humidity Indicating Conditions at Maximum Dry-Bulb {BasedOnField A3}
  86959,                                  ! Barometric Pressure {Pa}
  3.4,                                    ! Wind Speed {m/s}
  200,                                    ! Wind Direction {deg}
  0,                                      ! Sky Clearness
  0,                                      ! Rain Indicator
  0,                                      ! Snow Indicator
  21,                                     ! Day of Month
  7,                                      ! Month
  SummerDesignDay,                        ! Day Type
  0,                                      ! Daylight Saving Time Indicator
  Wetbulb,                                ! Humidity Indicating Type
  ,                                       ! Humidity Indicating Day Schedule Name
  DefaultMultipliers,                     ! Dry-Bulb Temperature Range Modifier Type
  ,                                       ! Dry-Bulb Temperature Range Modifier Schedule Name
  ASHRAETau,                              ! Solar Model Indicator
  ,                                       ! Beam Solar Day Schedule Name
  ,                                       ! Diffuse Solar Day Schedule Name
  0.372,                                  ! ASHRAE Taub {dimensionless}
  2.219;                                  ! ASHRAE Taud {dimensionless}

OS:ComponentData,
  {eef07a02-e84b-4ec7-8b38-12e5e77c6ac3}, ! Handle
  Component Data 1,                       ! Name
  {b86c00b3-65d7-4b1c-af5d-25f18107ab0d}, ! UUID
  {4103f620-3665-430d-97e4-97b7d794b4bf}, ! Version UUID
  1366309996,                             ! Creation Timestamp
  1366309996,                             ! Version Timestamp
  {c430bfaa-3f2e-4cd0-8854-482fe7d4b488}; ! Name of Object 1

