
OS:Version,
  {94e8d26b-9135-4e48-b1dc-b1075af75faf}, ! Handle
  0.9.3;                                  ! Version Identifier

OS:SizingPeriod:DesignDay,
  {20b2053a-60dc-4fe8-98fa-c745d6bf0c5e}, ! Handle
  ABILENE Ann Htg Wind 99% Condns WS=>MCDB, ! Name
  12.1,                                   ! Maximum Dry-Bulb Temperature {C}
  0,                                      ! Daily Dry-Bulb Temperature Range {deltaC}
  12.1,                                   ! Humidity Indicating Conditions at Maximum Dry-Bulb {BasedOnField A3}
  95072,                                  ! Barometric Pressure {Pa}
  12,                                     ! Wind Speed {m/s}
  10,                                     ! Wind Direction {deg}
  0,                                      ! Sky Clearness
  0,                                      ! Rain Indicator
  0,                                      ! Snow Indicator
  21,                                     ! Day of Month
  1,                                      ! Month
  WinterDesignDay,                        ! Day Type
  0,                                      ! Daylight Saving Time Indicator
  Wetbulb,                                ! Humidity Indicating Type
  ,                                       ! Humidity Indicating Day Schedule Name
  DefaultMultipliers,                     ! Dry-Bulb Temperature Range Modifier Type
  ,                                       ! Dry-Bulb Temperature Range Modifier Schedule Name
  ASHRAEClearSky;                         ! Solar Model Indicator

OS:ComponentData,
  {d01a7cf8-0116-4b7e-8e19-0ae7ed1e1266}, ! Handle
  Component Data 1,                       ! Name
  {b9927cb7-e45f-4dfd-955d-6a590745cbf5}, ! UUID
  {39f49488-53f7-4a8a-ae93-3dde30d90c73}, ! Version UUID
  1366310550,                             ! Creation Timestamp
  1366310550,                             ! Version Timestamp
  {20b2053a-60dc-4fe8-98fa-c745d6bf0c5e}; ! Name of Object 1

