
OS:Version,
  {a8e7ec59-8538-4720-a939-198922727941}, ! Handle
  0.9.3;                                  ! Version Identifier

OS:SizingPeriod:DesignDay,
  {63314376-7c40-41d6-a0b8-b3c6119e2fee}, ! Handle
  Fort Worth Meacham Ann Clg 2% Condns DP=>MDB, ! Name
  27.8,                                   ! Maximum Dry-Bulb Temperature {C}
  11.1,                                   ! Daily Dry-Bulb Temperature Range {deltaC}
  22.9,                                   ! Humidity Indicating Conditions at Maximum Dry-Bulb {BasedOnField A3}
  98839,                                  ! Barometric Pressure {Pa}
  4.6,                                    ! Wind Speed {m/s}
  160,                                    ! Wind Direction {deg}
  0,                                      ! Sky Clearness
  0,                                      ! Rain Indicator
  0,                                      ! Snow Indicator
  21,                                     ! Day of Month
  8,                                      ! Month
  SummerDesignDay,                        ! Day Type
  0,                                      ! Daylight Saving Time Indicator
  Dewpoint,                               ! Humidity Indicating Type
  ,                                       ! Humidity Indicating Day Schedule Name
  DefaultMultipliers,                     ! Dry-Bulb Temperature Range Modifier Type
  ,                                       ! Dry-Bulb Temperature Range Modifier Schedule Name
  ASHRAETau,                              ! Solar Model Indicator
  ,                                       ! Beam Solar Day Schedule Name
  ,                                       ! Diffuse Solar Day Schedule Name
  0.466,                                  ! ASHRAE Taub {dimensionless}
  2.06;                                   ! ASHRAE Taud {dimensionless}

OS:ComponentData,
  {07e17a76-b76b-4617-8e00-e9b831e005c7}, ! Handle
  Component Data 1,                       ! Name
  {855863ae-a0c1-404a-ab1d-3a8a581cc370}, ! UUID
  {702986ad-c8d1-4569-9c88-5b66175dc7b7}, ! Version UUID
  1366310702,                             ! Creation Timestamp
  1366310702,                             ! Version Timestamp
  {63314376-7c40-41d6-a0b8-b3c6119e2fee}; ! Name of Object 1

