
OS:Version,
  {f4146b4e-51d1-447a-92b3-3e5f1ba46b74}, ! Handle
  0.9.3;                                  ! Version Identifier

OS:SizingPeriod:DesignDay,
  {1cef8d84-d742-4311-81b0-3c00884e718e}, ! Handle
  Colorado Springs Ann Clg 1% Condns DB=>MWB, ! Name
  30.9,                                   ! Maximum Dry-Bulb Temperature {C}
  14.5,                                   ! Daily Dry-Bulb Temperature Range {deltaC}
  14.7,                                   ! Humidity Indicating Conditions at Maximum Dry-Bulb {BasedOnField A3}
  80677,                                  ! Barometric Pressure {Pa}
  5.4,                                    ! Wind Speed {m/s}
  170,                                    ! Wind Direction {deg}
  0,                                      ! Sky Clearness
  0,                                      ! Rain Indicator
  0,                                      ! Snow Indicator
  21,                                     ! Day of Month
  7,                                      ! Month
  SummerDesignDay,                        ! Day Type
  0,                                      ! Daylight Saving Time Indicator
  Wetbulb,                                ! Humidity Indicating Type
  ,                                       ! Humidity Indicating Day Schedule Name
  DefaultMultipliers,                     ! Dry-Bulb Temperature Range Modifier Type
  ,                                       ! Dry-Bulb Temperature Range Modifier Schedule Name
  ASHRAETau,                              ! Solar Model Indicator
  ,                                       ! Beam Solar Day Schedule Name
  ,                                       ! Diffuse Solar Day Schedule Name
  0.408,                                  ! ASHRAE Taub {dimensionless}
  2.047;                                  ! ASHRAE Taud {dimensionless}

OS:ComponentData,
  {1dcc320b-dbae-4383-8275-cb705379eb39}, ! Handle
  Component Data 1,                       ! Name
  {dd3bad53-00a6-40be-b61a-39fe5c5d8cb7}, ! UUID
  {8d8c378a-a5ef-4318-aaae-d9846da7a7b7}, ! Version UUID
  1366306658,                             ! Creation Timestamp
  1366306658,                             ! Version Timestamp
  {1cef8d84-d742-4311-81b0-3c00884e718e}; ! Name of Object 1

