
OS:Version,
  {9ef8be8d-f7e0-4145-a0ef-f1aba7839b22}, ! Handle
  0.9.3;                                  ! Version Identifier

OS:SizingPeriod:DesignDay,
  {072d8ee4-d669-481b-bce2-935ad3957ba7}, ! Handle
  Detroit/City Ann Clg 1% Condns WB=>MDB, ! Name
  29,                                     ! Maximum Dry-Bulb Temperature {C}
  9.7,                                    ! Daily Dry-Bulb Temperature Range {deltaC}
  23.9,                                   ! Humidity Indicating Conditions at Maximum Dry-Bulb {BasedOnField A3}
  99063,                                  ! Barometric Pressure {Pa}
  5,                                      ! Wind Speed {m/s}
  230,                                    ! Wind Direction {deg}
  0,                                      ! Sky Clearness
  0,                                      ! Rain Indicator
  0,                                      ! Snow Indicator
  21,                                     ! Day of Month
  7,                                      ! Month
  SummerDesignDay,                        ! Day Type
  0,                                      ! Daylight Saving Time Indicator
  Wetbulb,                                ! Humidity Indicating Type
  ,                                       ! Humidity Indicating Day Schedule Name
  DefaultMultipliers,                     ! Dry-Bulb Temperature Range Modifier Type
  ,                                       ! Dry-Bulb Temperature Range Modifier Schedule Name
  ASHRAETau,                              ! Solar Model Indicator
  ,                                       ! Beam Solar Day Schedule Name
  ,                                       ! Diffuse Solar Day Schedule Name
  0.481,                                  ! ASHRAE Taub {dimensionless}
  1.939;                                  ! ASHRAE Taud {dimensionless}

OS:ComponentData,
  {f3eafcf7-086e-4127-a38e-024ecdb10a57}, ! Handle
  Component Data 1,                       ! Name
  {748e8814-2038-4bfa-9b2d-a92a30d4a126}, ! UUID
  {d10c549b-fc7a-4535-9b88-4d909cf3ff52}, ! Version UUID
  1366307972,                             ! Creation Timestamp
  1366307972,                             ! Version Timestamp
  {072d8ee4-d669-481b-bce2-935ad3957ba7}; ! Name of Object 1

