
OS:Version,
  {27f5fb72-1e3d-4437-af15-7bd139a7f75c}, ! Handle
  0.9.3;                                  ! Version Identifier

OS:SizingPeriod:DesignDay,
  {7d7c3a14-aa99-4b35-9f98-fe1188f09fb0}, ! Handle
  ELKINS Ann Htg 99.6% Condns DB,         ! Name
  -17.8,                                  ! Maximum Dry-Bulb Temperature {C}
  0,                                      ! Daily Dry-Bulb Temperature Range {deltaC}
  -17.8,                                  ! Humidity Indicating Conditions at Maximum Dry-Bulb {BasedOnField A3}
  94390,                                  ! Barometric Pressure {Pa}
  1.3,                                    ! Wind Speed {m/s}
  260,                                    ! Wind Direction {deg}
  0,                                      ! Sky Clearness
  0,                                      ! Rain Indicator
  0,                                      ! Snow Indicator
  21,                                     ! Day of Month
  1,                                      ! Month
  WinterDesignDay,                        ! Day Type
  0,                                      ! Daylight Saving Time Indicator
  Wetbulb,                                ! Humidity Indicating Type
  ,                                       ! Humidity Indicating Day Schedule Name
  DefaultMultipliers,                     ! Dry-Bulb Temperature Range Modifier Type
  ,                                       ! Dry-Bulb Temperature Range Modifier Schedule Name
  ASHRAEClearSky;                         ! Solar Model Indicator

OS:ComponentData,
  {5b9b4f4b-6262-431c-afba-de4d2090959d}, ! Handle
  Component Data 1,                       ! Name
  {63fba2a1-e1d2-4c8d-94b4-cecc48fcc554}, ! UUID
  {d44e567a-8aeb-4c76-be6e-7f4d94f9f36b}, ! Version UUID
  1366311645,                             ! Creation Timestamp
  1366311645,                             ! Version Timestamp
  {7d7c3a14-aa99-4b35-9f98-fe1188f09fb0}; ! Name of Object 1

