
OS:Version,
  {d74a3e37-9332-4f9f-b67c-bd8ef16c7258}, ! Handle
  0.9.3;                                  ! Version Identifier

OS:SizingPeriod:DesignDay,
  {31936a56-b950-4e81-99f8-1d95396f1bc8}, ! Handle
  HELENA Ann Htg Wind 99.6% Condns WS=>MCDB, ! Name
  4.1,                                    ! Maximum Dry-Bulb Temperature {C}
  0,                                      ! Daily Dry-Bulb Temperature Range {deltaC}
  4.1,                                    ! Humidity Indicating Conditions at Maximum Dry-Bulb {BasedOnField A3}
  87844,                                  ! Barometric Pressure {Pa}
  12,                                     ! Wind Speed {m/s}
  300,                                    ! Wind Direction {deg}
  0,                                      ! Sky Clearness
  0,                                      ! Rain Indicator
  0,                                      ! Snow Indicator
  21,                                     ! Day of Month
  12,                                     ! Month
  WinterDesignDay,                        ! Day Type
  0,                                      ! Daylight Saving Time Indicator
  Wetbulb,                                ! Humidity Indicating Type
  ,                                       ! Humidity Indicating Day Schedule Name
  DefaultMultipliers,                     ! Dry-Bulb Temperature Range Modifier Type
  ,                                       ! Dry-Bulb Temperature Range Modifier Schedule Name
  ASHRAEClearSky;                         ! Solar Model Indicator

OS:ComponentData,
  {014f2aff-2f76-4484-8d2b-f91bfc5569cd}, ! Handle
  Component Data 1,                       ! Name
  {88746b01-0091-4017-9cae-4f5db99d02c5}, ! UUID
  {2b8310cd-68fc-4fd7-ae72-72990da29d71}, ! Version UUID
  1366308788,                             ! Creation Timestamp
  1366308788,                             ! Version Timestamp
  {31936a56-b950-4e81-99f8-1d95396f1bc8}; ! Name of Object 1

