
OS:Version,
  {1f73ba48-423a-48a6-bee5-2f367500b382}, ! Handle
  0.9.3;                                  ! Version Identifier

OS:SizingPeriod:DesignDay,
  {e71a4d04-98bb-4bc7-bd81-03c4c3b2e8ba}, ! Handle
  Jackson Julian Carroll Ap Ann Hum_n 99.6% Condns DP=>MCDB, ! Name
  -10.6,                                  ! Maximum Dry-Bulb Temperature {C}
  0,                                      ! Daily Dry-Bulb Temperature Range {deltaC}
  -18.8,                                  ! Humidity Indicating Conditions at Maximum Dry-Bulb {BasedOnField A3}
  96426,                                  ! Barometric Pressure {Pa}
  2.8,                                    ! Wind Speed {m/s}
  250,                                    ! Wind Direction {deg}
  0,                                      ! Sky Clearness
  0,                                      ! Rain Indicator
  0,                                      ! Snow Indicator
  21,                                     ! Day of Month
  1,                                      ! Month
  WinterDesignDay,                        ! Day Type
  0,                                      ! Daylight Saving Time Indicator
  Dewpoint,                               ! Humidity Indicating Type
  ,                                       ! Humidity Indicating Day Schedule Name
  DefaultMultipliers,                     ! Dry-Bulb Temperature Range Modifier Type
  ,                                       ! Dry-Bulb Temperature Range Modifier Schedule Name
  ASHRAEClearSky;                         ! Solar Model Indicator

OS:ComponentData,
  {8b1ce25e-960f-42fd-9255-0aeec0362a80}, ! Handle
  Component Data 1,                       ! Name
  {868eab50-60fe-428b-9565-c5828885466e}, ! UUID
  {0fbd59ff-b02f-4ea6-8607-05a58e485d4d}, ! Version UUID
  1366307642,                             ! Creation Timestamp
  1366307642,                             ! Version Timestamp
  {e71a4d04-98bb-4bc7-bd81-03c4c3b2e8ba}; ! Name of Object 1

