
OS:Version,
  {adb22976-9c00-40dc-89cc-e1e6493bc876}, ! Handle
  0.9.3;                                  ! Version Identifier

OS:SizingPeriod:DesignDay,
  {9502385f-0ef0-4c44-b785-8ba328022519}, ! Handle
  Cedar City Ann Htg 99.6% Condns DB,     ! Name
  -15.9,                                  ! Maximum Dry-Bulb Temperature {C}
  0,                                      ! Daily Dry-Bulb Temperature Range {deltaC}
  -15.9,                                  ! Humidity Indicating Conditions at Maximum Dry-Bulb {BasedOnField A3}
  82359,                                  ! Barometric Pressure {Pa}
  1.1,                                    ! Wind Speed {m/s}
  60,                                     ! Wind Direction {deg}
  0,                                      ! Sky Clearness
  0,                                      ! Rain Indicator
  0,                                      ! Snow Indicator
  21,                                     ! Day of Month
  12,                                     ! Month
  WinterDesignDay,                        ! Day Type
  0,                                      ! Daylight Saving Time Indicator
  Wetbulb,                                ! Humidity Indicating Type
  ,                                       ! Humidity Indicating Day Schedule Name
  DefaultMultipliers,                     ! Dry-Bulb Temperature Range Modifier Type
  ,                                       ! Dry-Bulb Temperature Range Modifier Schedule Name
  ASHRAEClearSky;                         ! Solar Model Indicator

OS:ComponentData,
  {103ce36c-a62e-4199-aee6-c8f7381edd09}, ! Handle
  Component Data 1,                       ! Name
  {df92b167-828f-4c31-876d-2d2ee16ebc62}, ! UUID
  {ef7e65aa-e8f9-4cfd-9c62-fdeeaf0a8c0b}, ! Version UUID
  1366310952,                             ! Creation Timestamp
  1366310952,                             ! Version Timestamp
  {9502385f-0ef0-4c44-b785-8ba328022519}; ! Name of Object 1

