
OS:Version,
  {9aaf1706-a7f6-4736-b02b-228519b30068}, ! Handle
  0.9.3;                                  ! Version Identifier

OS:SizingPeriod:DesignDay,
  {693c6d51-2da5-464f-bddd-65ca046dc321}, ! Handle
  Cleveland Hopkins Intl Ap Ann Htg Wind 99% Condns WS=>MCDB, ! Name
  -1.9,                                   ! Maximum Dry-Bulb Temperature {C}
  0,                                      ! Daily Dry-Bulb Temperature Range {deltaC}
  -1.9,                                   ! Humidity Indicating Conditions at Maximum Dry-Bulb {BasedOnField A3}
  98534,                                  ! Barometric Pressure {Pa}
  11.8,                                   ! Wind Speed {m/s}
  230,                                    ! Wind Direction {deg}
  0,                                      ! Sky Clearness
  0,                                      ! Rain Indicator
  0,                                      ! Snow Indicator
  21,                                     ! Day of Month
  1,                                      ! Month
  WinterDesignDay,                        ! Day Type
  0,                                      ! Daylight Saving Time Indicator
  Wetbulb,                                ! Humidity Indicating Type
  ,                                       ! Humidity Indicating Day Schedule Name
  DefaultMultipliers,                     ! Dry-Bulb Temperature Range Modifier Type
  ,                                       ! Dry-Bulb Temperature Range Modifier Schedule Name
  ASHRAEClearSky;                         ! Solar Model Indicator

OS:ComponentData,
  {f83703d3-1e96-471f-ae8a-f405e81f8702}, ! Handle
  Component Data 1,                       ! Name
  {75a844a2-db1e-4fab-b5bf-8ddbb084c53e}, ! UUID
  {fcfaba52-6f75-4442-b0ad-6a3faf23c305}, ! Version UUID
  1366309780,                             ! Creation Timestamp
  1366309780,                             ! Version Timestamp
  {693c6d51-2da5-464f-bddd-65ca046dc321}; ! Name of Object 1

