
OS:Version,
  {b87ff303-70b4-4eae-9a12-9faa031e8cf3}, ! Handle
  0.9.3;                                  ! Version Identifier

OS:SizingPeriod:DesignDay,
  {7df2e6a3-ce34-4d34-9588-01db23bfe072}, ! Handle
  Fayetteville Rgnl G Ann Clg .4% Condns DP=>MDB, ! Name
  28.2,                                   ! Maximum Dry-Bulb Temperature {C}
  10.4,                                   ! Daily Dry-Bulb Temperature Range {deltaC}
  24.9,                                   ! Humidity Indicating Conditions at Maximum Dry-Bulb {BasedOnField A3}
  100618,                                 ! Barometric Pressure {Pa}
  3.7,                                    ! Wind Speed {m/s}
  240,                                    ! Wind Direction {deg}
  0,                                      ! Sky Clearness
  0,                                      ! Rain Indicator
  0,                                      ! Snow Indicator
  21,                                     ! Day of Month
  7,                                      ! Month
  SummerDesignDay,                        ! Day Type
  0,                                      ! Daylight Saving Time Indicator
  Dewpoint,                               ! Humidity Indicating Type
  ,                                       ! Humidity Indicating Day Schedule Name
  DefaultMultipliers,                     ! Dry-Bulb Temperature Range Modifier Type
  ,                                       ! Dry-Bulb Temperature Range Modifier Schedule Name
  ASHRAETau,                              ! Solar Model Indicator
  ,                                       ! Beam Solar Day Schedule Name
  ,                                       ! Diffuse Solar Day Schedule Name
  0.584,                                  ! ASHRAE Taub {dimensionless}
  1.713;                                  ! ASHRAE Taud {dimensionless}

OS:ComponentData,
  {9fc92f1c-1981-4e48-8e30-4a00a23f835f}, ! Handle
  Component Data 1,                       ! Name
  {896ee329-f4cd-4a6a-b6bc-e1d9698e12f5}, ! UUID
  {74da9c54-8b92-46d8-b5c0-9873f66e3534}, ! Version UUID
  1366308916,                             ! Creation Timestamp
  1366308916,                             ! Version Timestamp
  {7df2e6a3-ce34-4d34-9588-01db23bfe072}; ! Name of Object 1

