
OS:Version,
  {fa0ae9fa-091f-4070-84c4-baa6428ebb20}, ! Handle
  0.9.3;                                  ! Version Identifier

OS:SizingPeriod:DesignDay,
  {648aad69-5acc-46a6-b211-41aef89e45bb}, ! Handle
  FLINT Ann Htg 99% Condns DB,            ! Name
  -15.7,                                  ! Maximum Dry-Bulb Temperature {C}
  0,                                      ! Daily Dry-Bulb Temperature Range {deltaC}
  -15.7,                                  ! Humidity Indicating Conditions at Maximum Dry-Bulb {BasedOnField A3}
  98557,                                  ! Barometric Pressure {Pa}
  3.8,                                    ! Wind Speed {m/s}
  220,                                    ! Wind Direction {deg}
  0,                                      ! Sky Clearness
  0,                                      ! Rain Indicator
  0,                                      ! Snow Indicator
  21,                                     ! Day of Month
  1,                                      ! Month
  WinterDesignDay,                        ! Day Type
  0,                                      ! Daylight Saving Time Indicator
  Wetbulb,                                ! Humidity Indicating Type
  ,                                       ! Humidity Indicating Day Schedule Name
  DefaultMultipliers,                     ! Dry-Bulb Temperature Range Modifier Type
  ,                                       ! Dry-Bulb Temperature Range Modifier Schedule Name
  ASHRAEClearSky;                         ! Solar Model Indicator

OS:ComponentData,
  {53d5a7f5-a438-496f-b25c-79c4175d3c68}, ! Handle
  Component Data 1,                       ! Name
  {373bb728-c819-46ab-9958-a4a973a16fff}, ! UUID
  {7c711f0e-6556-442a-ac08-87fda24f0a2b}, ! Version UUID
  1366308002,                             ! Creation Timestamp
  1366308002,                             ! Version Timestamp
  {648aad69-5acc-46a6-b211-41aef89e45bb}; ! Name of Object 1

