
OS:Version,
  {fb570e48-1e01-4803-a129-637ea5dbd158}, ! Handle
  0.9.3;                                  ! Version Identifier

OS:SizingPeriod:DesignDay,
  {c03cfcf4-b90e-4f35-84b7-866f0945a3b4}, ! Handle
  Hayward Air Term Ann Htg Wind 99% Condns WS=>MCDB, ! Name
  12.1,                                   ! Maximum Dry-Bulb Temperature {C}
  0,                                      ! Daily Dry-Bulb Temperature Range {deltaC}
  12.1,                                   ! Humidity Indicating Conditions at Maximum Dry-Bulb {BasedOnField A3}
  101157,                                 ! Barometric Pressure {Pa}
  7.8,                                    ! Wind Speed {m/s}
  60,                                     ! Wind Direction {deg}
  0,                                      ! Sky Clearness
  0,                                      ! Rain Indicator
  0,                                      ! Snow Indicator
  21,                                     ! Day of Month
  1,                                      ! Month
  WinterDesignDay,                        ! Day Type
  0,                                      ! Daylight Saving Time Indicator
  Wetbulb,                                ! Humidity Indicating Type
  ,                                       ! Humidity Indicating Day Schedule Name
  DefaultMultipliers,                     ! Dry-Bulb Temperature Range Modifier Type
  ,                                       ! Dry-Bulb Temperature Range Modifier Schedule Name
  ASHRAEClearSky;                         ! Solar Model Indicator

OS:ComponentData,
  {aa4b98c0-ea67-49fb-8f36-9f798eeeb58e}, ! Handle
  Component Data 1,                       ! Name
  {b5bd5242-4c6b-4b49-a033-78367728407f}, ! UUID
  {5005ac0c-9659-4b0a-acf8-66ff4e483299}, ! Version UUID
  1366306448,                             ! Creation Timestamp
  1366306448,                             ! Version Timestamp
  {c03cfcf4-b90e-4f35-84b7-866f0945a3b4}; ! Name of Object 1

