
OS:Version,
  {3e96ba86-587d-4042-889f-23d9c391ca8c}, ! Handle
  0.9.3;                                  ! Version Identifier

OS:SizingPeriod:DesignDay,
  {6c864f5f-b312-4b9e-a876-9239d018ef28}, ! Handle
  Clovis Muni   Awos Ann Clg .4% Condns Enth=>MDB, ! Name
  28.8,                                   ! Maximum Dry-Bulb Temperature {C}
  15.4,                                   ! Daily Dry-Bulb Temperature Range {deltaC}
  66400,                                  ! Humidity Indicating Conditions at Maximum Dry-Bulb {BasedOnField A3}
  86821,                                  ! Barometric Pressure {Pa}
  5.9,                                    ! Wind Speed {m/s}
  170,                                    ! Wind Direction {deg}
  0,                                      ! Sky Clearness
  0,                                      ! Rain Indicator
  0,                                      ! Snow Indicator
  21,                                     ! Day of Month
  7,                                      ! Month
  SummerDesignDay,                        ! Day Type
  0,                                      ! Daylight Saving Time Indicator
  Enthalpy,                               ! Humidity Indicating Type
  ,                                       ! Humidity Indicating Day Schedule Name
  DefaultMultipliers,                     ! Dry-Bulb Temperature Range Modifier Type
  ,                                       ! Dry-Bulb Temperature Range Modifier Schedule Name
  ASHRAETau,                              ! Solar Model Indicator
  ,                                       ! Beam Solar Day Schedule Name
  ,                                       ! Diffuse Solar Day Schedule Name
  0.392,                                  ! ASHRAE Taub {dimensionless}
  2.203;                                  ! ASHRAE Taud {dimensionless}

OS:ComponentData,
  {bfa5ddab-50da-4148-bd31-6f12dbec39bc}, ! Handle
  Component Data 1,                       ! Name
  {b2eb4213-9dde-46e6-b95a-e3a78ec562e9}, ! UUID
  {7e4b9cbf-5260-4afd-b99e-938978157ffe}, ! Version UUID
  1366309397,                             ! Creation Timestamp
  1366309397,                             ! Version Timestamp
  {6c864f5f-b312-4b9e-a876-9239d018ef28}; ! Name of Object 1

