
OS:Version,
  {fff7bd91-e339-493f-a229-73afd7c6e9c4}, ! Handle
  0.9.3;                                  ! Version Identifier

OS:SizingPeriod:DesignDay,
  {8429b09b-988c-46e7-ab14-6a26df70a8f3}, ! Handle
  Kalispell Glacier Pk IntL Ar Ann Clg 2% Condns DB=>MWB, ! Name
  28.3,                                   ! Maximum Dry-Bulb Temperature {C}
  17,                                     ! Daily Dry-Bulb Temperature Range {deltaC}
  15.9,                                   ! Humidity Indicating Conditions at Maximum Dry-Bulb {BasedOnField A3}
  90904,                                  ! Barometric Pressure {Pa}
  3.6,                                    ! Wind Speed {m/s}
  160,                                    ! Wind Direction {deg}
  0,                                      ! Sky Clearness
  0,                                      ! Rain Indicator
  0,                                      ! Snow Indicator
  21,                                     ! Day of Month
  7,                                      ! Month
  SummerDesignDay,                        ! Day Type
  0,                                      ! Daylight Saving Time Indicator
  Wetbulb,                                ! Humidity Indicating Type
  ,                                       ! Humidity Indicating Day Schedule Name
  DefaultMultipliers,                     ! Dry-Bulb Temperature Range Modifier Type
  ,                                       ! Dry-Bulb Temperature Range Modifier Schedule Name
  ASHRAETau,                              ! Solar Model Indicator
  ,                                       ! Beam Solar Day Schedule Name
  ,                                       ! Diffuse Solar Day Schedule Name
  0.355,                                  ! ASHRAE Taub {dimensionless}
  2.406;                                  ! ASHRAE Taud {dimensionless}

OS:ComponentData,
  {505701a8-34ca-4129-a4f3-f0e59cbca0aa}, ! Handle
  Component Data 1,                       ! Name
  {5c7b732d-edbf-4ec2-969c-7a232c8b48df}, ! UUID
  {b6b91863-b8c7-43e3-a036-f8a69f75fa5a}, ! Version UUID
  1366308802,                             ! Creation Timestamp
  1366308802,                             ! Version Timestamp
  {8429b09b-988c-46e7-ab14-6a26df70a8f3}; ! Name of Object 1

