
OS:Version,
  {21ddee24-1466-4a0f-8d40-1289218947a5}, ! Handle
  0.9.3;                                  ! Version Identifier

OS:SizingPeriod:DesignDay,
  {39a43e2d-5ab5-4c90-b3fb-288d8283614a}, ! Handle
  Chattanooga Ann Clg .4% Condns DB=>MWB, ! Name
  34.7,                                   ! Maximum Dry-Bulb Temperature {C}
  10.6,                                   ! Daily Dry-Bulb Temperature Range {deltaC}
  23.9,                                   ! Humidity Indicating Conditions at Maximum Dry-Bulb {BasedOnField A3}
  98828,                                  ! Barometric Pressure {Pa}
  3.2,                                    ! Wind Speed {m/s}
  280,                                    ! Wind Direction {deg}
  0,                                      ! Sky Clearness
  0,                                      ! Rain Indicator
  0,                                      ! Snow Indicator
  21,                                     ! Day of Month
  7,                                      ! Month
  SummerDesignDay,                        ! Day Type
  0,                                      ! Daylight Saving Time Indicator
  Wetbulb,                                ! Humidity Indicating Type
  ,                                       ! Humidity Indicating Day Schedule Name
  DefaultMultipliers,                     ! Dry-Bulb Temperature Range Modifier Type
  ,                                       ! Dry-Bulb Temperature Range Modifier Schedule Name
  ASHRAETau,                              ! Solar Model Indicator
  ,                                       ! Beam Solar Day Schedule Name
  ,                                       ! Diffuse Solar Day Schedule Name
  0.562,                                  ! ASHRAE Taub {dimensionless}
  1.761;                                  ! ASHRAE Taud {dimensionless}

OS:ComponentData,
  {494ebab7-0cbb-49f5-a94a-c688627f51ef}, ! Handle
  Component Data 1,                       ! Name
  {09eca7d4-2192-41e1-8000-9ec7716c8532}, ! UUID
  {6c73fbf9-279c-4cc3-8e9c-9f961665dfa5}, ! Version UUID
  1366310484,                             ! Creation Timestamp
  1366310484,                             ! Version Timestamp
  {39a43e2d-5ab5-4c90-b3fb-288d8283614a}; ! Name of Object 1

