
OS:Version,
  {a41f3379-899b-473f-b51c-1f6e7f727b66}, ! Handle
  0.9.3;                                  ! Version Identifier

OS:SizingPeriod:DesignDay,
  {2c6a270d-426e-4700-951a-cfcf5d8328a5}, ! Handle
  JACKSONVILLE Ann Clg 1% Condns Enth=>MDB, ! Name
  31.3,                                   ! Maximum Dry-Bulb Temperature {C}
  10,                                     ! Daily Dry-Bulb Temperature Range {deltaC}
  81000,                                  ! Humidity Indicating Conditions at Maximum Dry-Bulb {BasedOnField A3}
  101217,                                 ! Barometric Pressure {Pa}
  3.6,                                    ! Wind Speed {m/s}
  260,                                    ! Wind Direction {deg}
  0,                                      ! Sky Clearness
  0,                                      ! Rain Indicator
  0,                                      ! Snow Indicator
  21,                                     ! Day of Month
  7,                                      ! Month
  SummerDesignDay,                        ! Day Type
  0,                                      ! Daylight Saving Time Indicator
  Enthalpy,                               ! Humidity Indicating Type
  ,                                       ! Humidity Indicating Day Schedule Name
  DefaultMultipliers,                     ! Dry-Bulb Temperature Range Modifier Type
  ,                                       ! Dry-Bulb Temperature Range Modifier Schedule Name
  ASHRAETau,                              ! Solar Model Indicator
  ,                                       ! Beam Solar Day Schedule Name
  ,                                       ! Diffuse Solar Day Schedule Name
  0.541,                                  ! ASHRAE Taub {dimensionless}
  1.863;                                  ! ASHRAE Taud {dimensionless}

OS:ComponentData,
  {e54d38b5-a1e1-4d21-8e2e-01cd95edd4c7}, ! Handle
  Component Data 1,                       ! Name
  {0cf07317-e669-40b3-a622-a9cb65a7df5e}, ! UUID
  {b788f82e-1e38-4bd0-85de-53da39144a54}, ! Version UUID
  1366306818,                             ! Creation Timestamp
  1366306818,                             ! Version Timestamp
  {2c6a270d-426e-4700-951a-cfcf5d8328a5}; ! Name of Object 1

