
OS:Version,
  {dc49c9fe-11b7-4fe4-a794-c2fbc6ce1abd}, ! Handle
  0.9.3;                                  ! Version Identifier

OS:SizingPeriod:DesignDay,
  {58012e2a-94bd-442f-95ef-622fadcaab35}, ! Handle
  Great Falls/Malmstrom Ann Clg 1% Condns DP=>MDB, ! Name
  19.5,                                   ! Maximum Dry-Bulb Temperature {C}
  16,                                     ! Daily Dry-Bulb Temperature Range {deltaC}
  13.3,                                   ! Humidity Indicating Conditions at Maximum Dry-Bulb {BasedOnField A3}
  89060,                                  ! Barometric Pressure {Pa}
  4.9,                                    ! Wind Speed {m/s}
  240,                                    ! Wind Direction {deg}
  0,                                      ! Sky Clearness
  0,                                      ! Rain Indicator
  0,                                      ! Snow Indicator
  21,                                     ! Day of Month
  7,                                      ! Month
  SummerDesignDay,                        ! Day Type
  0,                                      ! Daylight Saving Time Indicator
  Dewpoint,                               ! Humidity Indicating Type
  ,                                       ! Humidity Indicating Day Schedule Name
  DefaultMultipliers,                     ! Dry-Bulb Temperature Range Modifier Type
  ,                                       ! Dry-Bulb Temperature Range Modifier Schedule Name
  ASHRAETau,                              ! Solar Model Indicator
  ,                                       ! Beam Solar Day Schedule Name
  ,                                       ! Diffuse Solar Day Schedule Name
  0.383,                                  ! ASHRAE Taub {dimensionless}
  2.176;                                  ! ASHRAE Taud {dimensionless}

OS:ComponentData,
  {54d96933-3161-468d-8bff-4a6a6ef1591c}, ! Handle
  Component Data 1,                       ! Name
  {5c7a7364-94db-4c0e-ad68-d5609ffb9170}, ! UUID
  {bc2136d9-7d6d-4055-bb62-580380113e61}, ! Version UUID
  1366308777,                             ! Creation Timestamp
  1366308777,                             ! Version Timestamp
  {58012e2a-94bd-442f-95ef-622fadcaab35}; ! Name of Object 1

