
OS:Version,
  {fe22db34-72ba-42be-a2f1-a4c0b6b39f73}, ! Handle
  0.9.3;                                  ! Version Identifier

OS:SizingPeriod:DesignDay,
  {2c3b2350-4822-4141-8586-ce60169cb1bf}, ! Handle
  Bethel Airport Ann Hum_n 99% Condns DP=>MCDB, ! Name
  -29.4,                                  ! Maximum Dry-Bulb Temperature {C}
  0,                                      ! Daily Dry-Bulb Temperature Range {deltaC}
  -33.8,                                  ! Humidity Indicating Conditions at Maximum Dry-Bulb {BasedOnField A3}
  100869,                                 ! Barometric Pressure {Pa}
  4.1,                                    ! Wind Speed {m/s}
  20,                                     ! Wind Direction {deg}
  0,                                      ! Sky Clearness
  0,                                      ! Rain Indicator
  0,                                      ! Snow Indicator
  21,                                     ! Day of Month
  1,                                      ! Month
  WinterDesignDay,                        ! Day Type
  0,                                      ! Daylight Saving Time Indicator
  Dewpoint,                               ! Humidity Indicating Type
  ,                                       ! Humidity Indicating Day Schedule Name
  DefaultMultipliers,                     ! Dry-Bulb Temperature Range Modifier Type
  ,                                       ! Dry-Bulb Temperature Range Modifier Schedule Name
  ASHRAEClearSky;                         ! Solar Model Indicator

OS:ComponentData,
  {40250b3e-4977-4ebd-a310-2d1ef7d8841c}, ! Handle
  Component Data 1,                       ! Name
  {99f0d584-be71-4d17-beb1-cfd0f479a2f8}, ! UUID
  {4e13d43a-8d56-4884-a393-048572e851a1}, ! Version UUID
  1366304757,                             ! Creation Timestamp
  1366304757,                             ! Version Timestamp
  {2c3b2350-4822-4141-8586-ce60169cb1bf}; ! Name of Object 1

