
OS:Version,
  {6b224d63-e09b-42a1-8b3d-260d057f2d14}, ! Handle
  0.9.3;                                  ! Version Identifier

OS:SizingPeriod:DesignDay,
  {1fea82c6-b982-4dd9-b604-8d8e4b37e42d}, ! Handle
  Barrow W Post W Rogers Arpt Ann Clg 1% Condns Enth=>MDB, ! Name
  11.7,                                   ! Maximum Dry-Bulb Temperature {C}
  6.3,                                    ! Daily Dry-Bulb Temperature Range {deltaC}
  29100,                                  ! Humidity Indicating Conditions at Maximum Dry-Bulb {BasedOnField A3}
  101205,                                 ! Barometric Pressure {Pa}
  5.2,                                    ! Wind Speed {m/s}
  180,                                    ! Wind Direction {deg}
  0,                                      ! Sky Clearness
  0,                                      ! Rain Indicator
  0,                                      ! Snow Indicator
  21,                                     ! Day of Month
  7,                                      ! Month
  SummerDesignDay,                        ! Day Type
  0,                                      ! Daylight Saving Time Indicator
  Enthalpy,                               ! Humidity Indicating Type
  ,                                       ! Humidity Indicating Day Schedule Name
  DefaultMultipliers,                     ! Dry-Bulb Temperature Range Modifier Type
  ,                                       ! Dry-Bulb Temperature Range Modifier Schedule Name
  ASHRAETau,                              ! Solar Model Indicator
  ,                                       ! Beam Solar Day Schedule Name
  ,                                       ! Diffuse Solar Day Schedule Name
  0.344,                                  ! ASHRAE Taub {dimensionless}
  2.25;                                   ! ASHRAE Taud {dimensionless}

OS:ComponentData,
  {3b92ccf6-7387-4c2f-aa0a-e387dd9fe724}, ! Handle
  Component Data 1,                       ! Name
  {6b50800a-af81-40d3-a42a-020fff894b06}, ! UUID
  {0785efbe-d588-43e4-b328-4c708fac0061}, ! Version UUID
  1366304738,                             ! Creation Timestamp
  1366304738,                             ! Version Timestamp
  {1fea82c6-b982-4dd9-b604-8d8e4b37e42d}; ! Name of Object 1

