
OS:Version,
  {d61c304e-77ad-46c1-a30d-b9acd12dbe7f}, ! Handle
  0.9.3;                                  ! Version Identifier

OS:SizingPeriod:DesignDay,
  {6a7715ea-bded-4475-bba0-0e2f4b8e3198}, ! Handle
  Green Bay Ann Clg 1% Condns DB=>MWB,    ! Name
  29.6,                                   ! Maximum Dry-Bulb Temperature {C}
  11.3,                                   ! Daily Dry-Bulb Temperature Range {deltaC}
  22.2,                                   ! Humidity Indicating Conditions at Maximum Dry-Bulb {BasedOnField A3}
  98780,                                  ! Barometric Pressure {Pa}
  5.1,                                    ! Wind Speed {m/s}
  200,                                    ! Wind Direction {deg}
  0,                                      ! Sky Clearness
  0,                                      ! Rain Indicator
  0,                                      ! Snow Indicator
  21,                                     ! Day of Month
  7,                                      ! Month
  SummerDesignDay,                        ! Day Type
  0,                                      ! Daylight Saving Time Indicator
  Wetbulb,                                ! Humidity Indicating Type
  ,                                       ! Humidity Indicating Day Schedule Name
  DefaultMultipliers,                     ! Dry-Bulb Temperature Range Modifier Type
  ,                                       ! Dry-Bulb Temperature Range Modifier Schedule Name
  ASHRAETau,                              ! Solar Model Indicator
  ,                                       ! Beam Solar Day Schedule Name
  ,                                       ! Diffuse Solar Day Schedule Name
  0.432,                                  ! ASHRAE Taub {dimensionless}
  2.118;                                  ! ASHRAE Taud {dimensionless}

OS:ComponentData,
  {afe87dd7-1e29-4717-b35c-0638c3073210}, ! Handle
  Component Data 1,                       ! Name
  {dc1725b0-1133-4039-bf3a-39cf0ead4b6d}, ! UUID
  {ef49f2fd-78a9-414e-8d1d-e54e4733cd9a}, ! Version UUID
  1366311484,                             ! Creation Timestamp
  1366311484,                             ! Version Timestamp
  {6a7715ea-bded-4475-bba0-0e2f4b8e3198}; ! Name of Object 1

