
OS:Version,
  {ac91b1b2-6a50-4b62-8f0e-848962ecb594}, ! Handle
  0.9.3;                                  ! Version Identifier

OS:SizingPeriod:DesignDay,
  {d590982a-7c4a-43fe-9b31-fab6fdb84b9a}, ! Handle
  Chariton Ann Htg Wind 99.6% Condns WS=>MCDB, ! Name
  -9.8,                                   ! Maximum Dry-Bulb Temperature {C}
  0,                                      ! Daily Dry-Bulb Temperature Range {deltaC}
  -9.8,                                   ! Humidity Indicating Conditions at Maximum Dry-Bulb {BasedOnField A3}
  97539,                                  ! Barometric Pressure {Pa}
  13.3,                                   ! Wind Speed {m/s}
  0,                                      ! Wind Direction {deg}
  0,                                      ! Sky Clearness
  0,                                      ! Rain Indicator
  0,                                      ! Snow Indicator
  21,                                     ! Day of Month
  1,                                      ! Month
  WinterDesignDay,                        ! Day Type
  0,                                      ! Daylight Saving Time Indicator
  Wetbulb,                                ! Humidity Indicating Type
  ,                                       ! Humidity Indicating Day Schedule Name
  DefaultMultipliers,                     ! Dry-Bulb Temperature Range Modifier Type
  ,                                       ! Dry-Bulb Temperature Range Modifier Schedule Name
  ASHRAEClearSky;                         ! Solar Model Indicator

OS:ComponentData,
  {60b1654b-f4dd-4602-ab17-751c744d4535}, ! Handle
  Component Data 1,                       ! Name
  {740b5b00-d1af-4c3f-99b3-720bc1dda181}, ! UUID
  {73de1fd0-f460-443e-b87c-87c9dce25f1b}, ! Version UUID
  1366307151,                             ! Creation Timestamp
  1366307151,                             ! Version Timestamp
  {d590982a-7c4a-43fe-9b31-fab6fdb84b9a}; ! Name of Object 1

