
OS:Version,
  {b4b77f32-fd00-41da-bbf3-f110f9e6bf06}, ! Handle
  0.9.3;                                  ! Version Identifier

OS:SizingPeriod:DesignDay,
  {94868c87-f0b8-450f-92f9-d107a4c48a07}, ! Handle
  Keokuk Muni Ann Clg 1% Condns Enth=>MDB, ! Name
  32.5,                                   ! Maximum Dry-Bulb Temperature {C}
  10,                                     ! Daily Dry-Bulb Temperature Range {deltaC}
  83500,                                  ! Humidity Indicating Conditions at Maximum Dry-Bulb {BasedOnField A3}
  98886,                                  ! Barometric Pressure {Pa}
  4,                                      ! Wind Speed {m/s}
  210,                                    ! Wind Direction {deg}
  0,                                      ! Sky Clearness
  0,                                      ! Rain Indicator
  0,                                      ! Snow Indicator
  21,                                     ! Day of Month
  7,                                      ! Month
  SummerDesignDay,                        ! Day Type
  0,                                      ! Daylight Saving Time Indicator
  Enthalpy,                               ! Humidity Indicating Type
  ,                                       ! Humidity Indicating Day Schedule Name
  DefaultMultipliers,                     ! Dry-Bulb Temperature Range Modifier Type
  ,                                       ! Dry-Bulb Temperature Range Modifier Schedule Name
  ASHRAETau,                              ! Solar Model Indicator
  ,                                       ! Beam Solar Day Schedule Name
  ,                                       ! Diffuse Solar Day Schedule Name
  0.455,                                  ! ASHRAE Taub {dimensionless}
  2.055;                                  ! ASHRAE Taud {dimensionless}

OS:ComponentData,
  {9d935f27-ba95-429c-b3e6-0a9e91f4c841}, ! Handle
  Component Data 1,                       ! Name
  {9b647506-40cc-4f4a-a6f5-69b736933fe9}, ! UUID
  {6e2f11d2-38e8-4b37-9685-a0f944dd6ef7}, ! Version UUID
  1366307203,                             ! Creation Timestamp
  1366307203,                             ! Version Timestamp
  {94868c87-f0b8-450f-92f9-d107a4c48a07}; ! Name of Object 1

