
OS:Version,
  {6377b0e4-d2c2-4614-91b0-6b3639ac888d}, ! Handle
  0.9.3;                                  ! Version Identifier

OS:SizingPeriod:DesignDay,
  {97438510-23a0-44bf-bd08-e57ac8c58f93}, ! Handle
  HELENA Ann Clg 2% Condns DB=>MWB,       ! Name
  29.9,                                   ! Maximum Dry-Bulb Temperature {C}
  16.1,                                   ! Daily Dry-Bulb Temperature Range {deltaC}
  15.5,                                   ! Humidity Indicating Conditions at Maximum Dry-Bulb {BasedOnField A3}
  87844,                                  ! Barometric Pressure {Pa}
  4.9,                                    ! Wind Speed {m/s}
  290,                                    ! Wind Direction {deg}
  0,                                      ! Sky Clearness
  0,                                      ! Rain Indicator
  0,                                      ! Snow Indicator
  21,                                     ! Day of Month
  7,                                      ! Month
  SummerDesignDay,                        ! Day Type
  0,                                      ! Daylight Saving Time Indicator
  Wetbulb,                                ! Humidity Indicating Type
  ,                                       ! Humidity Indicating Day Schedule Name
  DefaultMultipliers,                     ! Dry-Bulb Temperature Range Modifier Type
  ,                                       ! Dry-Bulb Temperature Range Modifier Schedule Name
  ASHRAETau,                              ! Solar Model Indicator
  ,                                       ! Beam Solar Day Schedule Name
  ,                                       ! Diffuse Solar Day Schedule Name
  0.38,                                   ! ASHRAE Taub {dimensionless}
  2.232;                                  ! ASHRAE Taud {dimensionless}

OS:ComponentData,
  {1a978d41-5d2d-43b8-a9ec-64805f4974f0}, ! Handle
  Component Data 1,                       ! Name
  {dec86934-b3b7-4306-9b98-ab42a0b64624}, ! UUID
  {5f14daf7-d19b-413d-b647-d0f4c7e8ce21}, ! Version UUID
  1366308789,                             ! Creation Timestamp
  1366308789,                             ! Version Timestamp
  {97438510-23a0-44bf-bd08-e57ac8c58f93}; ! Name of Object 1

