
OS:Version,
  {deb43b1b-bf71-4621-8ad0-7e041d881d70}, ! Handle
  0.9.3;                                  ! Version Identifier

OS:SizingPeriod:DesignDay,
  {c37cd05e-cf20-40f7-98aa-d3a51def9b1c}, ! Handle
  Atlanta Ann Clg .4% Condns DP=>MDB,     ! Name
  27.3,                                   ! Maximum Dry-Bulb Temperature {C}
  9.5,                                    ! Daily Dry-Bulb Temperature Range {deltaC}
  23.4,                                   ! Humidity Indicating Conditions at Maximum Dry-Bulb {BasedOnField A3}
  97598,                                  ! Barometric Pressure {Pa}
  4,                                      ! Wind Speed {m/s}
  300,                                    ! Wind Direction {deg}
  0,                                      ! Sky Clearness
  0,                                      ! Rain Indicator
  0,                                      ! Snow Indicator
  21,                                     ! Day of Month
  7,                                      ! Month
  SummerDesignDay,                        ! Day Type
  0,                                      ! Daylight Saving Time Indicator
  Dewpoint,                               ! Humidity Indicating Type
  ,                                       ! Humidity Indicating Day Schedule Name
  DefaultMultipliers,                     ! Dry-Bulb Temperature Range Modifier Type
  ,                                       ! Dry-Bulb Temperature Range Modifier Schedule Name
  ASHRAETau,                              ! Solar Model Indicator
  ,                                       ! Beam Solar Day Schedule Name
  ,                                       ! Diffuse Solar Day Schedule Name
  0.556,                                  ! ASHRAE Taub {dimensionless}
  1.779;                                  ! ASHRAE Taud {dimensionless}

OS:ComponentData,
  {7bb26db8-36c7-407d-a827-a985b3e3ff46}, ! Handle
  Component Data 1,                       ! Name
  {d27d590e-9b54-4c52-8481-42c25eef7541}, ! UUID
  {606cc9d4-189e-4877-bb3c-64cd5811b7c3}, ! Version UUID
  1366306975,                             ! Creation Timestamp
  1366306975,                             ! Version Timestamp
  {c37cd05e-cf20-40f7-98aa-d3a51def9b1c}; ! Name of Object 1

