
OS:Version,
  {9b089baa-0bdd-44b1-9494-bee04328e7ef}, ! Handle
  0.9.3;                                  ! Version Identifier

OS:SizingPeriod:DesignDay,
  {95eff1b2-9c78-42a8-b6a3-9142822f6f7f}, ! Handle
  Augusta Airport Ann Hum_n 99.6% Condns DP=>MCDB, ! Name
  -18.1,                                  ! Maximum Dry-Bulb Temperature {C}
  0,                                      ! Daily Dry-Bulb Temperature Range {deltaC}
  -27.7,                                  ! Humidity Indicating Conditions at Maximum Dry-Bulb {BasedOnField A3}
  100046,                                 ! Barometric Pressure {Pa}
  4.3,                                    ! Wind Speed {m/s}
  290,                                    ! Wind Direction {deg}
  0,                                      ! Sky Clearness
  0,                                      ! Rain Indicator
  0,                                      ! Snow Indicator
  21,                                     ! Day of Month
  1,                                      ! Month
  WinterDesignDay,                        ! Day Type
  0,                                      ! Daylight Saving Time Indicator
  Dewpoint,                               ! Humidity Indicating Type
  ,                                       ! Humidity Indicating Day Schedule Name
  DefaultMultipliers,                     ! Dry-Bulb Temperature Range Modifier Type
  ,                                       ! Dry-Bulb Temperature Range Modifier Schedule Name
  ASHRAEClearSky;                         ! Solar Model Indicator

OS:ComponentData,
  {bc71c85e-1a91-4b88-8061-13c40c6fc98e}, ! Handle
  Component Data 1,                       ! Name
  {9d283ef0-8d43-4043-bf73-3a89c9e65334}, ! UUID
  {06f5591d-cb2b-4a01-a9d2-e2eb96e3564e}, ! Version UUID
  1366307868,                             ! Creation Timestamp
  1366307868,                             ! Version Timestamp
  {95eff1b2-9c78-42a8-b6a3-9142822f6f7f}; ! Name of Object 1

