
OS:Version,
  {b17e5367-befb-48d5-bf34-d99cf206bbca}, ! Handle
  0.9.3;                                  ! Version Identifier

OS:SizingPeriod:DesignDay,
  {c82be96e-6f19-401c-95a9-4ae85de7fed1}, ! Handle
  Augusta Airport Ann Htg 99% Condns DB,  ! Name
  -17.3,                                  ! Maximum Dry-Bulb Temperature {C}
  0,                                      ! Daily Dry-Bulb Temperature Range {deltaC}
  -17.3,                                  ! Humidity Indicating Conditions at Maximum Dry-Bulb {BasedOnField A3}
  100046,                                 ! Barometric Pressure {Pa}
  4.3,                                    ! Wind Speed {m/s}
  290,                                    ! Wind Direction {deg}
  0,                                      ! Sky Clearness
  0,                                      ! Rain Indicator
  0,                                      ! Snow Indicator
  21,                                     ! Day of Month
  1,                                      ! Month
  WinterDesignDay,                        ! Day Type
  0,                                      ! Daylight Saving Time Indicator
  Wetbulb,                                ! Humidity Indicating Type
  ,                                       ! Humidity Indicating Day Schedule Name
  DefaultMultipliers,                     ! Dry-Bulb Temperature Range Modifier Type
  ,                                       ! Dry-Bulb Temperature Range Modifier Schedule Name
  ASHRAEClearSky;                         ! Solar Model Indicator

OS:ComponentData,
  {c717743d-0005-4303-9ae2-fbcbf49cd1b7}, ! Handle
  Component Data 1,                       ! Name
  {eec7be7f-c9e0-4b68-820d-2e16273b111d}, ! UUID
  {50973f29-117e-43eb-a702-b5d94962ad85}, ! Version UUID
  1366307867,                             ! Creation Timestamp
  1366307867,                             ! Version Timestamp
  {c82be96e-6f19-401c-95a9-4ae85de7fed1}; ! Name of Object 1

