
OS:Version,
  {2802303f-224e-4152-aada-efae094739fc}, ! Handle
  0.9.3;                                  ! Version Identifier

OS:SizingPeriod:DesignDay,
  {ae123d8b-85eb-428c-a9dc-dda7cc8ba173}, ! Handle
  Kirksville Regional Ap Ann Htg 99.6% Condns DB, ! Name
  -19.7,                                  ! Maximum Dry-Bulb Temperature {C}
  0,                                      ! Daily Dry-Bulb Temperature Range {deltaC}
  -19.7,                                  ! Humidity Indicating Conditions at Maximum Dry-Bulb {BasedOnField A3}
  97843,                                  ! Barometric Pressure {Pa}
  4.6,                                    ! Wind Speed {m/s}
  350,                                    ! Wind Direction {deg}
  0,                                      ! Sky Clearness
  0,                                      ! Rain Indicator
  0,                                      ! Snow Indicator
  21,                                     ! Day of Month
  1,                                      ! Month
  WinterDesignDay,                        ! Day Type
  0,                                      ! Daylight Saving Time Indicator
  Wetbulb,                                ! Humidity Indicating Type
  ,                                       ! Humidity Indicating Day Schedule Name
  DefaultMultipliers,                     ! Dry-Bulb Temperature Range Modifier Type
  ,                                       ! Dry-Bulb Temperature Range Modifier Schedule Name
  ASHRAEClearSky;                         ! Solar Model Indicator

OS:ComponentData,
  {5d963be7-804b-4d53-a6a1-bff427b56257}, ! Handle
  Component Data 1,                       ! Name
  {0a816339-b88a-4319-b73e-dc2e56026203}, ! UUID
  {b721e211-d52a-4852-913c-32132c4c2fea}, ! Version UUID
  1366308537,                             ! Creation Timestamp
  1366308537,                             ! Version Timestamp
  {ae123d8b-85eb-428c-a9dc-dda7cc8ba173}; ! Name of Object 1

