
OS:Version,
  {d719b998-826a-4317-8dbe-6f58ee36530b}, ! Handle
  0.9.3;                                  ! Version Identifier

OS:SizingPeriod:DesignDay,
  {48cca3b1-6577-4ce7-9532-6e93bf6631aa}, ! Handle
  LYNCHBURG Ann Clg 1% Condns DP=>MDB,    ! Name
  26.4,                                   ! Maximum Dry-Bulb Temperature {C}
  10.7,                                   ! Daily Dry-Bulb Temperature Range {deltaC}
  22.4,                                   ! Humidity Indicating Conditions at Maximum Dry-Bulb {BasedOnField A3}
  98018,                                  ! Barometric Pressure {Pa}
  3.3,                                    ! Wind Speed {m/s}
  240,                                    ! Wind Direction {deg}
  0,                                      ! Sky Clearness
  0,                                      ! Rain Indicator
  0,                                      ! Snow Indicator
  21,                                     ! Day of Month
  7,                                      ! Month
  SummerDesignDay,                        ! Day Type
  0,                                      ! Daylight Saving Time Indicator
  Dewpoint,                               ! Humidity Indicating Type
  ,                                       ! Humidity Indicating Day Schedule Name
  DefaultMultipliers,                     ! Dry-Bulb Temperature Range Modifier Type
  ,                                       ! Dry-Bulb Temperature Range Modifier Schedule Name
  ASHRAETau,                              ! Solar Model Indicator
  ,                                       ! Beam Solar Day Schedule Name
  ,                                       ! Diffuse Solar Day Schedule Name
  0.531,                                  ! ASHRAE Taub {dimensionless}
  1.818;                                  ! ASHRAE Taud {dimensionless}

OS:ComponentData,
  {39a2d2b9-9064-4eb4-b371-7a47abf3210f}, ! Handle
  Component Data 1,                       ! Name
  {5569cb55-2a26-4c44-a243-86fb0b35cc62}, ! UUID
  {3ae28e0a-764e-4aca-b23d-5c52652edd7d}, ! Version UUID
  1366311084,                             ! Creation Timestamp
  1366311084,                             ! Version Timestamp
  {48cca3b1-6577-4ce7-9532-6e93bf6631aa}; ! Name of Object 1

