
OS:Version,
  {8391fc6d-f764-4fb1-92af-66b4e156c862}, ! Handle
  0.9.3;                                  ! Version Identifier

OS:SizingPeriod:DesignDay,
  {b760b0a9-19dd-4366-b3bd-0f9f6dbb15c1}, ! Handle
  Kake Seaplane Base Ann Clg .4% Condns DP=>MDB, ! Name
  15.8,                                   ! Maximum Dry-Bulb Temperature {C}
  6.3,                                    ! Daily Dry-Bulb Temperature Range {deltaC}
  12.8,                                   ! Humidity Indicating Conditions at Maximum Dry-Bulb {BasedOnField A3}
  101325,                                 ! Barometric Pressure {Pa}
  2.6,                                    ! Wind Speed {m/s}
  280,                                    ! Wind Direction {deg}
  0,                                      ! Sky Clearness
  0,                                      ! Rain Indicator
  0,                                      ! Snow Indicator
  21,                                     ! Day of Month
  7,                                      ! Month
  SummerDesignDay,                        ! Day Type
  0,                                      ! Daylight Saving Time Indicator
  Dewpoint,                               ! Humidity Indicating Type
  ,                                       ! Humidity Indicating Day Schedule Name
  DefaultMultipliers,                     ! Dry-Bulb Temperature Range Modifier Type
  ,                                       ! Dry-Bulb Temperature Range Modifier Schedule Name
  ASHRAETau,                              ! Solar Model Indicator
  ,                                       ! Beam Solar Day Schedule Name
  ,                                       ! Diffuse Solar Day Schedule Name
  0.386,                                  ! ASHRAE Taub {dimensionless}
  2.213;                                  ! ASHRAE Taud {dimensionless}

