
OS:Version,
  {48970df0-39e3-44ac-afa2-7074be81b515}, ! Handle
  0.9.3;                                  ! Version Identifier

OS:SizingPeriod:DesignDay,
  {28b3246f-e9fe-4af8-bc81-7d2e94965cce}, ! Handle
  Lubbock/Int'l Arpt Ann Clg 2% Condns Enth=>MDB, ! Name
  29.6,                                   ! Maximum Dry-Bulb Temperature {C}
  13.1,                                   ! Daily Dry-Bulb Temperature Range {deltaC}
  67700,                                  ! Humidity Indicating Conditions at Maximum Dry-Bulb {BasedOnField A3}
  90005,                                  ! Barometric Pressure {Pa}
  6.4,                                    ! Wind Speed {m/s}
  170,                                    ! Wind Direction {deg}
  0,                                      ! Sky Clearness
  0,                                      ! Rain Indicator
  0,                                      ! Snow Indicator
  21,                                     ! Day of Month
  7,                                      ! Month
  SummerDesignDay,                        ! Day Type
  0,                                      ! Daylight Saving Time Indicator
  Enthalpy,                               ! Humidity Indicating Type
  ,                                       ! Humidity Indicating Day Schedule Name
  DefaultMultipliers,                     ! Dry-Bulb Temperature Range Modifier Type
  ,                                       ! Dry-Bulb Temperature Range Modifier Schedule Name
  ASHRAETau,                              ! Solar Model Indicator
  ,                                       ! Beam Solar Day Schedule Name
  ,                                       ! Diffuse Solar Day Schedule Name
  0.396,                                  ! ASHRAE Taub {dimensionless}
  2.241;                                  ! ASHRAE Taud {dimensionless}

OS:ComponentData,
  {ab4c1991-9648-45bb-8da4-9750e0bb3d35}, ! Handle
  Component Data 1,                       ! Name
  {3a53547b-aa53-45c0-abf7-3af0d3f07b98}, ! UUID
  {91098742-5f3b-4e03-ac0d-994864e531cf}, ! Version UUID
  1366310797,                             ! Creation Timestamp
  1366310797,                             ! Version Timestamp
  {28b3246f-e9fe-4af8-bc81-7d2e94965cce}; ! Name of Object 1

