
OS:Version,
  {80b47ebc-5e90-4ead-840e-8427cdf08c1f}, ! Handle
  0.9.3;                                  ! Version Identifier

OS:SizingPeriod:DesignDay,
  {9d06be5c-8233-48dd-9788-afde10e05aa6}, ! Handle
  COVINGTON Ann Htg Wind 99.6% Condns WS=>MCDB, ! Name
  1.9,                                    ! Maximum Dry-Bulb Temperature {C}
  0,                                      ! Daily Dry-Bulb Temperature Range {deltaC}
  1.9,                                    ! Humidity Indicating Conditions at Maximum Dry-Bulb {BasedOnField A3}
  98112,                                  ! Barometric Pressure {Pa}
  12,                                     ! Wind Speed {m/s}
  280,                                    ! Wind Direction {deg}
  0,                                      ! Sky Clearness
  0,                                      ! Rain Indicator
  0,                                      ! Snow Indicator
  21,                                     ! Day of Month
  1,                                      ! Month
  WinterDesignDay,                        ! Day Type
  0,                                      ! Daylight Saving Time Indicator
  Wetbulb,                                ! Humidity Indicating Type
  ,                                       ! Humidity Indicating Day Schedule Name
  DefaultMultipliers,                     ! Dry-Bulb Temperature Range Modifier Type
  ,                                       ! Dry-Bulb Temperature Range Modifier Schedule Name
  ASHRAEClearSky;                         ! Solar Model Indicator

OS:ComponentData,
  {33d5af6d-c588-4222-9a5a-00109677c48f}, ! Handle
  Component Data 1,                       ! Name
  {572b9df7-a273-4720-bd0e-07e99b721378}, ! UUID
  {2a3907cd-0264-4f84-9784-0d5af05e5789}, ! Version UUID
  1366307624,                             ! Creation Timestamp
  1366307624,                             ! Version Timestamp
  {9d06be5c-8233-48dd-9788-afde10e05aa6}; ! Name of Object 1

