
OS:Version,
  {74ea71bb-0bd8-41ce-ad1d-b5b2ab96ca6f}, ! Handle
  0.9.3;                                  ! Version Identifier

OS:SizingPeriod:DesignDay,
  {6ec24e1a-4ed4-4dc5-a318-7dd051e74a57}, ! Handle
  Dillingham  Amos Ann Htg 99% Condns DB, ! Name
  -25.3,                                  ! Maximum Dry-Bulb Temperature {C}
  0,                                      ! Daily Dry-Bulb Temperature Range {deltaC}
  -25.3,                                  ! Humidity Indicating Conditions at Maximum Dry-Bulb {BasedOnField A3}
  100977,                                 ! Barometric Pressure {Pa}
  2,                                      ! Wind Speed {m/s}
  10,                                     ! Wind Direction {deg}
  0,                                      ! Sky Clearness
  0,                                      ! Rain Indicator
  0,                                      ! Snow Indicator
  21,                                     ! Day of Month
  1,                                      ! Month
  WinterDesignDay,                        ! Day Type
  0,                                      ! Daylight Saving Time Indicator
  Wetbulb,                                ! Humidity Indicating Type
  ,                                       ! Humidity Indicating Day Schedule Name
  DefaultMultipliers,                     ! Dry-Bulb Temperature Range Modifier Type
  ,                                       ! Dry-Bulb Temperature Range Modifier Schedule Name
  ASHRAEClearSky;                         ! Solar Model Indicator

OS:ComponentData,
  {6d5cafce-b3e0-48c2-9622-cb6ec370cd45}, ! Handle
  Component Data 1,                       ! Name
  {def2ea6f-a0ca-44ba-ae8d-fb0cc5b743ca}, ! UUID
  {21861709-b124-4b8c-89fb-b072598b4bc7}, ! Version UUID
  1366305223,                             ! Creation Timestamp
  1366305223,                             ! Version Timestamp
  {6ec24e1a-4ed4-4dc5-a318-7dd051e74a57}; ! Name of Object 1

