
OS:Version,
  {efe8ac1c-518c-48df-9cfe-5ca4a09cb18b}, ! Handle
  0.9.3;                                  ! Version Identifier

OS:SizingPeriod:DesignDay,
  {d7eb14ff-275a-4b12-beae-33c4717f4c71}, ! Handle
  Belleville Scott Afb Ann Htg 99.6% Condns DB, ! Name
  -15.3,                                  ! Maximum Dry-Bulb Temperature {C}
  0,                                      ! Daily Dry-Bulb Temperature Range {deltaC}
  -15.3,                                  ! Humidity Indicating Conditions at Maximum Dry-Bulb {BasedOnField A3}
  99714,                                  ! Barometric Pressure {Pa}
  3.7,                                    ! Wind Speed {m/s}
  320,                                    ! Wind Direction {deg}
  0,                                      ! Sky Clearness
  0,                                      ! Rain Indicator
  0,                                      ! Snow Indicator
  21,                                     ! Day of Month
  1,                                      ! Month
  WinterDesignDay,                        ! Day Type
  0,                                      ! Daylight Saving Time Indicator
  Wetbulb,                                ! Humidity Indicating Type
  ,                                       ! Humidity Indicating Day Schedule Name
  DefaultMultipliers,                     ! Dry-Bulb Temperature Range Modifier Type
  ,                                       ! Dry-Bulb Temperature Range Modifier Schedule Name
  ASHRAEClearSky;                         ! Solar Model Indicator

OS:ComponentData,
  {fe3d14a7-44af-4b8d-895c-b967d211cb21}, ! Handle
  Component Data 1,                       ! Name
  {d9a9f505-90cc-4771-bce1-dd5545531da9}, ! UUID
  {49efda09-e2ca-4d86-a471-0b8c3014c0cb}, ! Version UUID
  1366307322,                             ! Creation Timestamp
  1366307322,                             ! Version Timestamp
  {d7eb14ff-275a-4b12-beae-33c4717f4c71}; ! Name of Object 1

