
OS:Version,
  {cddb81ec-c767-4832-91d1-db893b0f26d5}, ! Handle
  0.9.3;                                  ! Version Identifier

OS:SizingPeriod:DesignDay,
  {f2661d33-9175-42f7-ac29-7b41551a877b}, ! Handle
  Abilene Regional Ap  Ut Ann Hum_n 99.6% Condns DP=>MCDB, ! Name
  -2.4,                                   ! Maximum Dry-Bulb Temperature {C}
  0,                                      ! Daily Dry-Bulb Temperature Range {deltaC}
  -15.8,                                  ! Humidity Indicating Conditions at Maximum Dry-Bulb {BasedOnField A3}
  95118,                                  ! Barometric Pressure {Pa}
  5.1,                                    ! Wind Speed {m/s}
  10,                                     ! Wind Direction {deg}
  0,                                      ! Sky Clearness
  0,                                      ! Rain Indicator
  0,                                      ! Snow Indicator
  21,                                     ! Day of Month
  1,                                      ! Month
  WinterDesignDay,                        ! Day Type
  0,                                      ! Daylight Saving Time Indicator
  Dewpoint,                               ! Humidity Indicating Type
  ,                                       ! Humidity Indicating Day Schedule Name
  DefaultMultipliers,                     ! Dry-Bulb Temperature Range Modifier Type
  ,                                       ! Dry-Bulb Temperature Range Modifier Schedule Name
  ASHRAEClearSky;                         ! Solar Model Indicator

OS:ComponentData,
  {36ba5658-88f0-41f5-9af1-367544a2ce0d}, ! Handle
  Component Data 1,                       ! Name
  {ab4ca660-bc04-472d-8fdb-7afc756d802e}, ! UUID
  {a3f2ecf6-7433-4889-9d6b-8cd2e7ba2ab8}, ! Version UUID
  1366310558,                             ! Creation Timestamp
  1366310558,                             ! Version Timestamp
  {f2661d33-9175-42f7-ac29-7b41551a877b}; ! Name of Object 1

