
OS:Version,
  {ac20f312-525d-49fd-a17a-093defa5f48c}, ! Handle
  0.9.3;                                  ! Version Identifier

OS:SizingPeriod:DesignDay,
  {55a9b23b-3e76-4be0-b891-37ca3370bbcf}, ! Handle
  GLASGOW Ann Clg .4% Condns Enth=>MDB,   ! Name
  29.7,                                   ! Maximum Dry-Bulb Temperature {C}
  14.5,                                   ! Daily Dry-Bulb Temperature Range {deltaC}
  61700,                                  ! Humidity Indicating Conditions at Maximum Dry-Bulb {BasedOnField A3}
  93194,                                  ! Barometric Pressure {Pa}
  5.4,                                    ! Wind Speed {m/s}
  150,                                    ! Wind Direction {deg}
  0,                                      ! Sky Clearness
  0,                                      ! Rain Indicator
  0,                                      ! Snow Indicator
  21,                                     ! Day of Month
  7,                                      ! Month
  SummerDesignDay,                        ! Day Type
  0,                                      ! Daylight Saving Time Indicator
  Enthalpy,                               ! Humidity Indicating Type
  ,                                       ! Humidity Indicating Day Schedule Name
  DefaultMultipliers,                     ! Dry-Bulb Temperature Range Modifier Type
  ,                                       ! Dry-Bulb Temperature Range Modifier Schedule Name
  ASHRAETau,                              ! Solar Model Indicator
  ,                                       ! Beam Solar Day Schedule Name
  ,                                       ! Diffuse Solar Day Schedule Name
  0.424,                                  ! ASHRAE Taub {dimensionless}
  2.044;                                  ! ASHRAE Taud {dimensionless}

OS:ComponentData,
  {97d1e753-1cbf-4e94-8881-1f00517d922b}, ! Handle
  Component Data 1,                       ! Name
  {dba39752-23fb-435d-b51c-85ffd9ec268e}, ! UUID
  {ec3fc068-e512-48ab-9de8-bdd6e3938eaf}, ! Version UUID
  1366308755,                             ! Creation Timestamp
  1366308755,                             ! Version Timestamp
  {55a9b23b-3e76-4be0-b891-37ca3370bbcf}; ! Name of Object 1

