
OS:Version,
  {3efb09ab-ddbc-4c4f-bdf0-3fdaf4b8b4e1}, ! Handle
  0.9.3;                                  ! Version Identifier

OS:SizingPeriod:DesignDay,
  {87afc08e-0242-4e1b-ace1-9f8dfac492c6}, ! Handle
  Columbus Afb Ann Htg Wind 99% Condns WS=>MCDB, ! Name
  6.3,                                    ! Maximum Dry-Bulb Temperature {C}
  0,                                      ! Daily Dry-Bulb Temperature Range {deltaC}
  6.3,                                    ! Humidity Indicating Conditions at Maximum Dry-Bulb {BasedOnField A3}
  100511,                                 ! Barometric Pressure {Pa}
  9.1,                                    ! Wind Speed {m/s}
  0,                                      ! Wind Direction {deg}
  0,                                      ! Sky Clearness
  0,                                      ! Rain Indicator
  0,                                      ! Snow Indicator
  21,                                     ! Day of Month
  1,                                      ! Month
  WinterDesignDay,                        ! Day Type
  0,                                      ! Daylight Saving Time Indicator
  Wetbulb,                                ! Humidity Indicating Type
  ,                                       ! Humidity Indicating Day Schedule Name
  DefaultMultipliers,                     ! Dry-Bulb Temperature Range Modifier Type
  ,                                       ! Dry-Bulb Temperature Range Modifier Schedule Name
  ASHRAEClearSky;                         ! Solar Model Indicator

OS:ComponentData,
  {d51cf099-54f3-401a-bff6-b2a89e675c92}, ! Handle
  Component Data 1,                       ! Name
  {22d623d4-7f39-428a-a079-6c3c8119e953}, ! UUID
  {0634cf4a-2afb-48f4-9581-27acb4349058}, ! Version UUID
  1366308611,                             ! Creation Timestamp
  1366308611,                             ! Version Timestamp
  {87afc08e-0242-4e1b-ace1-9f8dfac492c6}; ! Name of Object 1

