
OS:Version,
  {f7c393d1-543c-4340-a971-d389b47cb3a5}, ! Handle
  0.9.3;                                  ! Version Identifier

OS:SizingPeriod:DesignDay,
  {9d6ea5d6-7bf2-43ff-89f8-ed8cfbb9e0ae}, ! Handle
  EAGLE Ann Clg 2% Condns Enth=>MDB,      ! Name
  23.8,                                   ! Maximum Dry-Bulb Temperature {C}
  19,                                     ! Daily Dry-Bulb Temperature Range {deltaC}
  47400,                                  ! Humidity Indicating Conditions at Maximum Dry-Bulb {BasedOnField A3}
  79643,                                  ! Barometric Pressure {Pa}
  4.9,                                    ! Wind Speed {m/s}
  240,                                    ! Wind Direction {deg}
  0,                                      ! Sky Clearness
  0,                                      ! Rain Indicator
  0,                                      ! Snow Indicator
  21,                                     ! Day of Month
  7,                                      ! Month
  SummerDesignDay,                        ! Day Type
  0,                                      ! Daylight Saving Time Indicator
  Enthalpy,                               ! Humidity Indicating Type
  ,                                       ! Humidity Indicating Day Schedule Name
  DefaultMultipliers,                     ! Dry-Bulb Temperature Range Modifier Type
  ,                                       ! Dry-Bulb Temperature Range Modifier Schedule Name
  ASHRAETau,                              ! Solar Model Indicator
  ,                                       ! Beam Solar Day Schedule Name
  ,                                       ! Diffuse Solar Day Schedule Name
  0.4,                                    ! ASHRAE Taub {dimensionless}
  2.165;                                  ! ASHRAE Taud {dimensionless}

OS:ComponentData,
  {0d8b13ef-ca77-495c-9c59-1128978744d4}, ! Handle
  Component Data 1,                       ! Name
  {1ea11b17-bb8d-4c5a-b0e1-0efb90994e35}, ! UUID
  {4347e1f9-8809-45d5-b898-7d1cc5921aaf}, ! Version UUID
  1366306684,                             ! Creation Timestamp
  1366306684,                             ! Version Timestamp
  {9d6ea5d6-7bf2-43ff-89f8-ed8cfbb9e0ae}; ! Name of Object 1

