
OS:Version,
  {d7618c40-fc29-42af-a2b4-a2518bc3cda3}, ! Handle
  0.9.3;                                  ! Version Identifier

OS:SizingPeriod:DesignDay,
  {155ca79e-d5c3-4e90-9823-09b8fb0a1a00}, ! Handle
  COLORADO_SPRINGS Ann Clg 1% Condns Enth=>MDB, ! Name
  25.1,                                   ! Maximum Dry-Bulb Temperature {C}
  14.5,                                   ! Daily Dry-Bulb Temperature Range {deltaC}
  53900,                                  ! Humidity Indicating Conditions at Maximum Dry-Bulb {BasedOnField A3}
  80677,                                  ! Barometric Pressure {Pa}
  5.4,                                    ! Wind Speed {m/s}
  170,                                    ! Wind Direction {deg}
  0,                                      ! Sky Clearness
  0,                                      ! Rain Indicator
  0,                                      ! Snow Indicator
  21,                                     ! Day of Month
  7,                                      ! Month
  SummerDesignDay,                        ! Day Type
  0,                                      ! Daylight Saving Time Indicator
  Enthalpy,                               ! Humidity Indicating Type
  ,                                       ! Humidity Indicating Day Schedule Name
  DefaultMultipliers,                     ! Dry-Bulb Temperature Range Modifier Type
  ,                                       ! Dry-Bulb Temperature Range Modifier Schedule Name
  ASHRAETau,                              ! Solar Model Indicator
  ,                                       ! Beam Solar Day Schedule Name
  ,                                       ! Diffuse Solar Day Schedule Name
  0.408,                                  ! ASHRAE Taub {dimensionless}
  2.047;                                  ! ASHRAE Taud {dimensionless}

OS:ComponentData,
  {aa535e3d-2b76-4c3b-9c14-cc12bfde2a16}, ! Handle
  Component Data 1,                       ! Name
  {3e1e90f6-0131-4c2c-888a-4934df95d6c5}, ! UUID
  {04c06f40-6195-4027-9eb1-8507600bab7a}, ! Version UUID
  1366306666,                             ! Creation Timestamp
  1366306666,                             ! Version Timestamp
  {155ca79e-d5c3-4e90-9823-09b8fb0a1a00}; ! Name of Object 1

