
OS:Version,
  {ea850dec-c3b5-4fb4-9432-6ec35f169a4c}, ! Handle
  0.9.3;                                  ! Version Identifier

OS:SizingPeriod:DesignDay,
  {277ed8c1-857e-461f-ad8b-a943bfd0effa}, ! Handle
  ALBUQUERQUE Ann Clg .4% Condns WB=>MDB, ! Name
  28.1,                                   ! Maximum Dry-Bulb Temperature {C}
  13.5,                                   ! Daily Dry-Bulb Temperature Range {deltaC}
  18.5,                                   ! Humidity Indicating Conditions at Maximum Dry-Bulb {BasedOnField A3}
  83328,                                  ! Barometric Pressure {Pa}
  4.4,                                    ! Wind Speed {m/s}
  220,                                    ! Wind Direction {deg}
  0,                                      ! Sky Clearness
  0,                                      ! Rain Indicator
  0,                                      ! Snow Indicator
  21,                                     ! Day of Month
  7,                                      ! Month
  SummerDesignDay,                        ! Day Type
  0,                                      ! Daylight Saving Time Indicator
  Wetbulb,                                ! Humidity Indicating Type
  ,                                       ! Humidity Indicating Day Schedule Name
  DefaultMultipliers,                     ! Dry-Bulb Temperature Range Modifier Type
  ,                                       ! Dry-Bulb Temperature Range Modifier Schedule Name
  ASHRAETau,                              ! Solar Model Indicator
  ,                                       ! Beam Solar Day Schedule Name
  ,                                       ! Diffuse Solar Day Schedule Name
  0.463,                                  ! ASHRAE Taub {dimensionless}
  1.887;                                  ! ASHRAE Taud {dimensionless}

OS:ComponentData,
  {729ebe37-cd09-420f-a95b-67911137b3fb}, ! Handle
  Component Data 1,                       ! Name
  {1029bd6b-ebb1-4bca-8d57-c189f0e6e955}, ! UUID
  {b4940cfa-8c42-43d0-a592-1cc22b84741f}, ! Version UUID
  1366309358,                             ! Creation Timestamp
  1366309358,                             ! Version Timestamp
  {277ed8c1-857e-461f-ad8b-a943bfd0effa}; ! Name of Object 1

