
OS:Version,
  {7431949e-deb4-45fc-8c05-e94faed73e63}, ! Handle
  0.9.3;                                  ! Version Identifier

OS:SizingPeriod:DesignDay,
  {a8afbafe-88be-41c5-8f6b-93766fe732b9}, ! Handle
  Hartford Bradley Intl Ap Ann Clg .4% Condns Enth=>MDB, ! Name
  30.6,                                   ! Maximum Dry-Bulb Temperature {C}
  11.4,                                   ! Daily Dry-Bulb Temperature Range {deltaC}
  74500,                                  ! Humidity Indicating Conditions at Maximum Dry-Bulb {BasedOnField A3}
  100738,                                 ! Barometric Pressure {Pa}
  4.5,                                    ! Wind Speed {m/s}
  220,                                    ! Wind Direction {deg}
  0,                                      ! Sky Clearness
  0,                                      ! Rain Indicator
  0,                                      ! Snow Indicator
  21,                                     ! Day of Month
  7,                                      ! Month
  SummerDesignDay,                        ! Day Type
  0,                                      ! Daylight Saving Time Indicator
  Enthalpy,                               ! Humidity Indicating Type
  ,                                       ! Humidity Indicating Day Schedule Name
  DefaultMultipliers,                     ! Dry-Bulb Temperature Range Modifier Type
  ,                                       ! Dry-Bulb Temperature Range Modifier Schedule Name
  ASHRAETau,                              ! Solar Model Indicator
  ,                                       ! Beam Solar Day Schedule Name
  ,                                       ! Diffuse Solar Day Schedule Name
  0.486,                                  ! ASHRAE Taub {dimensionless}
  1.943;                                  ! ASHRAE Taud {dimensionless}

