
OS:Version,
  {31bd4f48-f688-4c5a-8705-1730fcd76dea}, ! Handle
  0.9.3;                                  ! Version Identifier

OS:SizingPeriod:DesignDay,
  {f532a9b2-ed6f-4983-9c65-d4c6989741e2}, ! Handle
  Carlsbad Palomar Ann Clg .4% Condns WB=>MDB, ! Name
  24.8,                                   ! Maximum Dry-Bulb Temperature {C}
  5.3,                                    ! Daily Dry-Bulb Temperature Range {deltaC}
  21.3,                                   ! Humidity Indicating Conditions at Maximum Dry-Bulb {BasedOnField A3}
  100129,                                 ! Barometric Pressure {Pa}
  3.3,                                    ! Wind Speed {m/s}
  250,                                    ! Wind Direction {deg}
  0,                                      ! Sky Clearness
  0,                                      ! Rain Indicator
  0,                                      ! Snow Indicator
  21,                                     ! Day of Month
  8,                                      ! Month
  SummerDesignDay,                        ! Day Type
  0,                                      ! Daylight Saving Time Indicator
  Wetbulb,                                ! Humidity Indicating Type
  ,                                       ! Humidity Indicating Day Schedule Name
  DefaultMultipliers,                     ! Dry-Bulb Temperature Range Modifier Type
  ,                                       ! Dry-Bulb Temperature Range Modifier Schedule Name
  ASHRAETau,                              ! Solar Model Indicator
  ,                                       ! Beam Solar Day Schedule Name
  ,                                       ! Diffuse Solar Day Schedule Name
  0.423,                                  ! ASHRAE Taub {dimensionless}
  2.195;                                  ! ASHRAE Taud {dimensionless}

OS:ComponentData,
  {d1553530-5a45-47a2-b302-2ce33a4e341a}, ! Handle
  Component Data 1,                       ! Name
  {ef9a2f61-57a7-4455-b3f7-b56d6da5708b}, ! UUID
  {c549f91a-917d-4bd5-bf65-620211717bc3}, ! Version UUID
  1366306402,                             ! Creation Timestamp
  1366306402,                             ! Version Timestamp
  {f532a9b2-ed6f-4983-9c65-d4c6989741e2}; ! Name of Object 1

