
OS:Version,
  {6091ebc9-9dd1-4087-9973-1c329ef20ff7}, ! Handle
  0.9.3;                                  ! Version Identifier

OS:SizingPeriod:DesignDay,
  {55a7a42e-797c-4d7d-a990-485dabf1714d}, ! Handle
  Houlton Intl Arpt Ann Clg 2% Condns Enth=>MDB, ! Name
  24.3,                                   ! Maximum Dry-Bulb Temperature {C}
  12.4,                                   ! Daily Dry-Bulb Temperature Range {deltaC}
  59200,                                  ! Humidity Indicating Conditions at Maximum Dry-Bulb {BasedOnField A3}
  99536,                                  ! Barometric Pressure {Pa}
  4.7,                                    ! Wind Speed {m/s}
  230,                                    ! Wind Direction {deg}
  0,                                      ! Sky Clearness
  0,                                      ! Rain Indicator
  0,                                      ! Snow Indicator
  21,                                     ! Day of Month
  7,                                      ! Month
  SummerDesignDay,                        ! Day Type
  0,                                      ! Daylight Saving Time Indicator
  Enthalpy,                               ! Humidity Indicating Type
  ,                                       ! Humidity Indicating Day Schedule Name
  DefaultMultipliers,                     ! Dry-Bulb Temperature Range Modifier Type
  ,                                       ! Dry-Bulb Temperature Range Modifier Schedule Name
  ASHRAETau,                              ! Solar Model Indicator
  ,                                       ! Beam Solar Day Schedule Name
  ,                                       ! Diffuse Solar Day Schedule Name
  0.441,                                  ! ASHRAE Taub {dimensionless}
  2.068;                                  ! ASHRAE Taud {dimensionless}

OS:ComponentData,
  {ba8da8a3-f3fc-465a-8b4d-2ff47fb6a41e}, ! Handle
  Component Data 1,                       ! Name
  {c1fdeb40-79ac-4496-a1c9-93d80a8e70b2}, ! UUID
  {a1467a07-96dd-4d75-9cf4-ff863f5f1b36}, ! Version UUID
  1366307903,                             ! Creation Timestamp
  1366307903,                             ! Version Timestamp
  {55a7a42e-797c-4d7d-a990-485dabf1714d}; ! Name of Object 1

