
OS:Version,
  {3a7f4652-60c8-4ae3-a60a-ab1b93727a0b}, ! Handle
  0.9.3;                                  ! Version Identifier

OS:SizingPeriod:DesignDay,
  {13a84a7a-e2e6-4473-b73d-c63dbe135ff0}, ! Handle
  Burlington Ann Clg .4% Condns WB=>MDB,  ! Name
  32,                                     ! Maximum Dry-Bulb Temperature {C}
  10.3,                                   ! Daily Dry-Bulb Temperature Range {deltaC}
  26.2,                                   ! Humidity Indicating Conditions at Maximum Dry-Bulb {BasedOnField A3}
  98792,                                  ! Barometric Pressure {Pa}
  4.5,                                    ! Wind Speed {m/s}
  200,                                    ! Wind Direction {deg}
  0,                                      ! Sky Clearness
  0,                                      ! Rain Indicator
  0,                                      ! Snow Indicator
  21,                                     ! Day of Month
  7,                                      ! Month
  SummerDesignDay,                        ! Day Type
  0,                                      ! Daylight Saving Time Indicator
  Wetbulb,                                ! Humidity Indicating Type
  ,                                       ! Humidity Indicating Day Schedule Name
  DefaultMultipliers,                     ! Dry-Bulb Temperature Range Modifier Type
  ,                                       ! Dry-Bulb Temperature Range Modifier Schedule Name
  ASHRAETau,                              ! Solar Model Indicator
  ,                                       ! Beam Solar Day Schedule Name
  ,                                       ! Diffuse Solar Day Schedule Name
  0.45,                                   ! ASHRAE Taub {dimensionless}
  2.07;                                   ! ASHRAE Taud {dimensionless}

OS:ComponentData,
  {6fdbf83f-7d9a-448b-a895-3341f771bac4}, ! Handle
  Component Data 1,                       ! Name
  {73137666-9453-4d39-9fc0-d7716026b51e}, ! UUID
  {aa001561-f38a-4e8a-b3f1-84144a8d352b}, ! Version UUID
  1366307140,                             ! Creation Timestamp
  1366307140,                             ! Version Timestamp
  {13a84a7a-e2e6-4473-b73d-c63dbe135ff0}; ! Name of Object 1

