
OS:Version,
  {45386a2a-3e46-4e64-bd89-6e0ce5284426}, ! Handle
  0.9.3;                                  ! Version Identifier

OS:SizingPeriod:DesignDay,
  {05df4d8e-9152-46a1-8434-100907efac71}, ! Handle
  Beaufort Mcas Ann Clg 2% Condns DP=>MDB, ! Name
  28.5,                                   ! Maximum Dry-Bulb Temperature {C}
  9,                                      ! Daily Dry-Bulb Temperature Range {deltaC}
  25,                                     ! Humidity Indicating Conditions at Maximum Dry-Bulb {BasedOnField A3}
  101205,                                 ! Barometric Pressure {Pa}
  3.1,                                    ! Wind Speed {m/s}
  270,                                    ! Wind Direction {deg}
  0,                                      ! Sky Clearness
  0,                                      ! Rain Indicator
  0,                                      ! Snow Indicator
  21,                                     ! Day of Month
  7,                                      ! Month
  SummerDesignDay,                        ! Day Type
  0,                                      ! Daylight Saving Time Indicator
  Dewpoint,                               ! Humidity Indicating Type
  ,                                       ! Humidity Indicating Day Schedule Name
  DefaultMultipliers,                     ! Dry-Bulb Temperature Range Modifier Type
  ,                                       ! Dry-Bulb Temperature Range Modifier Schedule Name
  ASHRAETau,                              ! Solar Model Indicator
  ,                                       ! Beam Solar Day Schedule Name
  ,                                       ! Diffuse Solar Day Schedule Name
  0.554,                                  ! ASHRAE Taub {dimensionless}
  1.819;                                  ! ASHRAE Taud {dimensionless}

OS:ComponentData,
  {0fbc469c-91fd-4340-92d2-60848f952fcd}, ! Handle
  Component Data 1,                       ! Name
  {2623ee8f-b3de-4d99-b614-39fac1d7c105}, ! UUID
  {2efa5fbc-6ad8-41f2-a05d-c34fb68290ce}, ! Version UUID
  1366310319,                             ! Creation Timestamp
  1366310319,                             ! Version Timestamp
  {05df4d8e-9152-46a1-8434-100907efac71}; ! Name of Object 1

