
OS:Version,
  {334a1636-d89f-4e67-8970-3cd4d6054f30}, ! Handle
  0.9.3;                                  ! Version Identifier

OS:SizingPeriod:DesignDay,
  {6a42891e-64cc-45f3-bbb1-7c71cea52cd5}, ! Handle
  Lexington Bluegrass Ap Ann Htg Wind 99% Condns WS=>MCDB, ! Name
  8.5,                                    ! Maximum Dry-Bulb Temperature {C}
  0,                                      ! Daily Dry-Bulb Temperature Range {deltaC}
  8.5,                                    ! Humidity Indicating Conditions at Maximum Dry-Bulb {BasedOnField A3}
  97843,                                  ! Barometric Pressure {Pa}
  9.9,                                    ! Wind Speed {m/s}
  290,                                    ! Wind Direction {deg}
  0,                                      ! Sky Clearness
  0,                                      ! Rain Indicator
  0,                                      ! Snow Indicator
  21,                                     ! Day of Month
  1,                                      ! Month
  WinterDesignDay,                        ! Day Type
  0,                                      ! Daylight Saving Time Indicator
  Wetbulb,                                ! Humidity Indicating Type
  ,                                       ! Humidity Indicating Day Schedule Name
  DefaultMultipliers,                     ! Dry-Bulb Temperature Range Modifier Type
  ,                                       ! Dry-Bulb Temperature Range Modifier Schedule Name
  ASHRAEClearSky;                         ! Solar Model Indicator

OS:ComponentData,
  {8ed6bd74-5d15-4f81-bdf1-771fd18cb27b}, ! Handle
  Component Data 1,                       ! Name
  {7da3db10-f51f-4f87-a19a-3f63d0043a46}, ! UUID
  {13922d5e-ba3c-454a-9aa6-c071e54f7982}, ! Version UUID
  1366307651,                             ! Creation Timestamp
  1366307651,                             ! Version Timestamp
  {6a42891e-64cc-45f3-bbb1-7c71cea52cd5}; ! Name of Object 1

