
OS:Version,
  {bbafde02-2c91-4455-b621-c6286f18872c}, ! Handle
  0.9.3;                                  ! Version Identifier

OS:SizingPeriod:DesignDay,
  {cab956f0-8b89-4f97-af40-15cc0aac7739}, ! Handle
  LIHUE Ann Clg 1% Condns DP=>MDB,        ! Name
  26.6,                                   ! Maximum Dry-Bulb Temperature {C}
  4.8,                                    ! Daily Dry-Bulb Temperature Range {deltaC}
  23.6,                                   ! Humidity Indicating Conditions at Maximum Dry-Bulb {BasedOnField A3}
  100786,                                 ! Barometric Pressure {Pa}
  6.4,                                    ! Wind Speed {m/s}
  60,                                     ! Wind Direction {deg}
  0,                                      ! Sky Clearness
  0,                                      ! Rain Indicator
  0,                                      ! Snow Indicator
  21,                                     ! Day of Month
  8,                                      ! Month
  SummerDesignDay,                        ! Day Type
  0,                                      ! Daylight Saving Time Indicator
  Dewpoint,                               ! Humidity Indicating Type
  ,                                       ! Humidity Indicating Day Schedule Name
  DefaultMultipliers,                     ! Dry-Bulb Temperature Range Modifier Type
  ,                                       ! Dry-Bulb Temperature Range Modifier Schedule Name
  ASHRAETau,                              ! Solar Model Indicator
  ,                                       ! Beam Solar Day Schedule Name
  ,                                       ! Diffuse Solar Day Schedule Name
  0.385,                                  ! ASHRAE Taub {dimensionless}
  2.509;                                  ! ASHRAE Taud {dimensionless}

OS:ComponentData,
  {04820161-854c-4edf-9f23-816f9aa91e52}, ! Handle
  Component Data 1,                       ! Name
  {85a025b9-deb4-472f-a8eb-e7d79dcd7523}, ! UUID
  {88f5e215-aa43-4e34-a3e2-487e3b410ad1}, ! Version UUID
  1366307114,                             ! Creation Timestamp
  1366307114,                             ! Version Timestamp
  {cab956f0-8b89-4f97-af40-15cc0aac7739}; ! Name of Object 1

