
OS:Version,
  {6ac833cd-b3c6-408b-87c9-42935c9d34c6}, ! Handle
  0.9.3;                                  ! Version Identifier

OS:SizingPeriod:DesignDay,
  {73cc0061-414d-4ea0-9364-30f1c94dca92}, ! Handle
  Grand Forks Af Ann Clg 1% Condns WB=>MDB, ! Name
  28.1,                                   ! Maximum Dry-Bulb Temperature {C}
  12.4,                                   ! Daily Dry-Bulb Temperature Range {deltaC}
  23.1,                                   ! Humidity Indicating Conditions at Maximum Dry-Bulb {BasedOnField A3}
  98053,                                  ! Barometric Pressure {Pa}
  5.8,                                    ! Wind Speed {m/s}
  180,                                    ! Wind Direction {deg}
  0,                                      ! Sky Clearness
  0,                                      ! Rain Indicator
  0,                                      ! Snow Indicator
  21,                                     ! Day of Month
  7,                                      ! Month
  SummerDesignDay,                        ! Day Type
  0,                                      ! Daylight Saving Time Indicator
  Wetbulb,                                ! Humidity Indicating Type
  ,                                       ! Humidity Indicating Day Schedule Name
  DefaultMultipliers,                     ! Dry-Bulb Temperature Range Modifier Type
  ,                                       ! Dry-Bulb Temperature Range Modifier Schedule Name
  ASHRAETau,                              ! Solar Model Indicator
  ,                                       ! Beam Solar Day Schedule Name
  ,                                       ! Diffuse Solar Day Schedule Name
  0.393,                                  ! ASHRAE Taub {dimensionless}
  2.263;                                  ! ASHRAE Taud {dimensionless}

OS:ComponentData,
  {1d880c08-9d26-4534-bb83-c8efe9a9c237}, ! Handle
  Component Data 1,                       ! Name
  {59cd58d2-e60f-4ea2-8a86-43752782f0a2}, ! UUID
  {babd62fb-55d9-47f2-a623-732fb0c95f38}, ! Version UUID
  1366309042,                             ! Creation Timestamp
  1366309042,                             ! Version Timestamp
  {73cc0061-414d-4ea0-9364-30f1c94dca92}; ! Name of Object 1

