
OS:Version,
  {8fcc7568-a7b8-42be-8ed2-804343704371}, ! Handle
  0.9.3;                                  ! Version Identifier

OS:SizingPeriod:DesignDay,
  {245f75e3-afaf-4d63-92f6-8830ba385d4e}, ! Handle
  BURLINGTON Ann Clg .4% Condns Enth=>MDB, ! Name
  29.1,                                   ! Maximum Dry-Bulb Temperature {C}
  10.7,                                   ! Daily Dry-Bulb Temperature Range {deltaC}
  70100,                                  ! Humidity Indicating Conditions at Maximum Dry-Bulb {BasedOnField A3}
  100082,                                 ! Barometric Pressure {Pa}
  4.5,                                    ! Wind Speed {m/s}
  170,                                    ! Wind Direction {deg}
  0,                                      ! Sky Clearness
  0,                                      ! Rain Indicator
  0,                                      ! Snow Indicator
  21,                                     ! Day of Month
  7,                                      ! Month
  SummerDesignDay,                        ! Day Type
  0,                                      ! Daylight Saving Time Indicator
  Enthalpy,                               ! Humidity Indicating Type
  ,                                       ! Humidity Indicating Day Schedule Name
  DefaultMultipliers,                     ! Dry-Bulb Temperature Range Modifier Type
  ,                                       ! Dry-Bulb Temperature Range Modifier Schedule Name
  ASHRAETau,                              ! Solar Model Indicator
  ,                                       ! Beam Solar Day Schedule Name
  ,                                       ! Diffuse Solar Day Schedule Name
  0.459,                                  ! ASHRAE Taub {dimensionless}
  2.002;                                  ! ASHRAE Taud {dimensionless}

OS:ComponentData,
  {a79e5bb0-d90f-44fb-a90d-8a02b51c1c69}, ! Handle
  Component Data 1,                       ! Name
  {bccd6bfa-bd6d-499d-a06a-bda82773d0e5}, ! UUID
  {17be7aae-c2f5-40be-b3bf-f68041b7b58c}, ! Version UUID
  1366311236,                             ! Creation Timestamp
  1366311236,                             ! Version Timestamp
  {245f75e3-afaf-4d63-92f6-8830ba385d4e}; ! Name of Object 1

