
OS:Version,
  {a68be5e9-e0e0-41ec-9f74-59256fba2501}, ! Handle
  0.9.3;                                  ! Version Identifier

OS:SizingPeriod:DesignDay,
  {5f220370-1fde-41a5-ad2e-82a7148952e6}, ! Handle
  Albany Ann Clg 1% Condns WB=>MDB,       ! Name
  27.9,                                   ! Maximum Dry-Bulb Temperature {C}
  11.1,                                   ! Daily Dry-Bulb Temperature Range {deltaC}
  23.4,                                   ! Humidity Indicating Conditions at Maximum Dry-Bulb {BasedOnField A3}
  100260,                                 ! Barometric Pressure {Pa}
  4.4,                                    ! Wind Speed {m/s}
  180,                                    ! Wind Direction {deg}
  0,                                      ! Sky Clearness
  0,                                      ! Rain Indicator
  0,                                      ! Snow Indicator
  21,                                     ! Day of Month
  7,                                      ! Month
  SummerDesignDay,                        ! Day Type
  0,                                      ! Daylight Saving Time Indicator
  Wetbulb,                                ! Humidity Indicating Type
  ,                                       ! Humidity Indicating Day Schedule Name
  DefaultMultipliers,                     ! Dry-Bulb Temperature Range Modifier Type
  ,                                       ! Dry-Bulb Temperature Range Modifier Schedule Name
  ASHRAETau,                              ! Solar Model Indicator
  ,                                       ! Beam Solar Day Schedule Name
  ,                                       ! Diffuse Solar Day Schedule Name
  0.49,                                   ! ASHRAE Taub {dimensionless}
  1.923;                                  ! ASHRAE Taud {dimensionless}

OS:ComponentData,
  {2f24a6e8-8e2b-45e5-a299-3a4a5d49205e}, ! Handle
  Component Data 1,                       ! Name
  {32c0f44c-97c5-4b62-a3b3-dcbefae82b57}, ! UUID
  {60d13c4f-cc97-4aeb-92c1-6cb7b50b63ad}, ! Version UUID
  1366309580,                             ! Creation Timestamp
  1366309580,                             ! Version Timestamp
  {5f220370-1fde-41a5-ad2e-82a7148952e6}; ! Name of Object 1

