
OS:Version,
  {fe98492d-a71a-425c-90b3-929aaaed5c55}, ! Handle
  0.9.3;                                  ! Version Identifier

OS:SizingPeriod:DesignDay,
  {2b1b65ea-1d03-4cec-8727-324aeaf1b31b}, ! Handle
  Burley Municipal Arpt Ann Clg 1% Condns DP=>MDB, ! Name
  22.5,                                   ! Maximum Dry-Bulb Temperature {C}
  16.9,                                   ! Daily Dry-Bulb Temperature Range {deltaC}
  14.5,                                   ! Humidity Indicating Conditions at Maximum Dry-Bulb {BasedOnField A3}
  87002,                                  ! Barometric Pressure {Pa}
  3,                                      ! Wind Speed {m/s}
  270,                                    ! Wind Direction {deg}
  0,                                      ! Sky Clearness
  0,                                      ! Rain Indicator
  0,                                      ! Snow Indicator
  21,                                     ! Day of Month
  7,                                      ! Month
  SummerDesignDay,                        ! Day Type
  0,                                      ! Daylight Saving Time Indicator
  Dewpoint,                               ! Humidity Indicating Type
  ,                                       ! Humidity Indicating Day Schedule Name
  DefaultMultipliers,                     ! Dry-Bulb Temperature Range Modifier Type
  ,                                       ! Dry-Bulb Temperature Range Modifier Schedule Name
  ASHRAETau,                              ! Solar Model Indicator
  ,                                       ! Beam Solar Day Schedule Name
  ,                                       ! Diffuse Solar Day Schedule Name
  0.429,                                  ! ASHRAE Taub {dimensionless}
  1.956;                                  ! ASHRAE Taud {dimensionless}

OS:ComponentData,
  {7fc7ce35-f8d0-4743-9d55-a1854b609b2a}, ! Handle
  Component Data 1,                       ! Name
  {c323965c-f619-4c81-9162-ffd6122fa430}, ! UUID
  {d81efc6a-7ffc-40c1-a1d8-c1505108e457}, ! Version UUID
  1366307274,                             ! Creation Timestamp
  1366307274,                             ! Version Timestamp
  {2b1b65ea-1d03-4cec-8727-324aeaf1b31b}; ! Name of Object 1

