
OS:Version,
  {f778c049-728f-4e70-b6f7-1a9dbbb38daa}, ! Handle
  0.9.3;                                  ! Version Identifier

OS:SizingPeriod:DesignDay,
  {09a6810a-f69c-4adb-ac1c-d3c48db0c6ad}, ! Handle
  Denver-Stapleton Ann Hum_n 99% Condns DP=>MCDB, ! Name
  -11.3,                                  ! Maximum Dry-Bulb Temperature {C}
  0,                                      ! Daily Dry-Bulb Temperature Range {deltaC}
  -20.2,                                  ! Humidity Indicating Conditions at Maximum Dry-Bulb {BasedOnField A3}
  83411,                                  ! Barometric Pressure {Pa}
  2.3,                                    ! Wind Speed {m/s}
  180,                                    ! Wind Direction {deg}
  0,                                      ! Sky Clearness
  0,                                      ! Rain Indicator
  0,                                      ! Snow Indicator
  21,                                     ! Day of Month
  12,                                     ! Month
  WinterDesignDay,                        ! Day Type
  0,                                      ! Daylight Saving Time Indicator
  Dewpoint,                               ! Humidity Indicating Type
  ,                                       ! Humidity Indicating Day Schedule Name
  DefaultMultipliers,                     ! Dry-Bulb Temperature Range Modifier Type
  ,                                       ! Dry-Bulb Temperature Range Modifier Schedule Name
  ASHRAEClearSky;                         ! Solar Model Indicator

OS:ComponentData,
  {4bf6ad8d-ce38-4e1f-87af-5988e681b896}, ! Handle
  Component Data 1,                       ! Name
  {ea465e2b-5df0-487a-8932-a928aa87fca6}, ! UUID
  {fbb3bbd2-8bc5-417b-9392-8aa91e57d472}, ! Version UUID
  1366306673,                             ! Creation Timestamp
  1366306673,                             ! Version Timestamp
  {09a6810a-f69c-4adb-ac1c-d3c48db0c6ad}; ! Name of Object 1

