
OS:Version,
  {43f618ed-a444-4675-82c9-95e8b9f12184}, ! Handle
  0.9.3;                                  ! Version Identifier

OS:SizingPeriod:DesignDay,
  {abef674f-4dab-4b67-bad2-647b17cb189b}, ! Handle
  Fort Dodge  Awos Ann Htg Wind 99.6% Condns WS=>MCDB, ! Name
  -12.5,                                  ! Maximum Dry-Bulb Temperature {C}
  0,                                      ! Daily Dry-Bulb Temperature Range {deltaC}
  -12.5,                                  ! Humidity Indicating Conditions at Maximum Dry-Bulb {BasedOnField A3}
  97132,                                  ! Barometric Pressure {Pa}
  12.9,                                   ! Wind Speed {m/s}
  310,                                    ! Wind Direction {deg}
  0,                                      ! Sky Clearness
  0,                                      ! Rain Indicator
  0,                                      ! Snow Indicator
  21,                                     ! Day of Month
  1,                                      ! Month
  WinterDesignDay,                        ! Day Type
  0,                                      ! Daylight Saving Time Indicator
  Wetbulb,                                ! Humidity Indicating Type
  ,                                       ! Humidity Indicating Day Schedule Name
  DefaultMultipliers,                     ! Dry-Bulb Temperature Range Modifier Type
  ,                                       ! Dry-Bulb Temperature Range Modifier Schedule Name
  ASHRAEClearSky;                         ! Solar Model Indicator

OS:ComponentData,
  {7bab0712-f3a4-4a66-8f64-142110735216}, ! Handle
  Component Data 1,                       ! Name
  {66f3c639-c941-454d-8460-198fa1bea456}, ! UUID
  {440fde24-7e94-4e36-89fb-edab62316414}, ! Version UUID
  1366307196,                             ! Creation Timestamp
  1366307196,                             ! Version Timestamp
  {abef674f-4dab-4b67-bad2-647b17cb189b}; ! Name of Object 1

