
OS:Version,
  {d8d3934f-22e9-4b5d-96a1-7ee3fabd1d0e}, ! Handle
  0.9.3;                                  ! Version Identifier

OS:SizingPeriod:DesignDay,
  {47e644e0-46cf-4ddb-8ee2-50dcaf66f2de}, ! Handle
  Litchfield Muni Ann Clg .4% Condns DB=>MWB, ! Name
  31.7,                                   ! Maximum Dry-Bulb Temperature {C}
  9.8,                                    ! Daily Dry-Bulb Temperature Range {deltaC}
  23.1,                                   ! Humidity Indicating Conditions at Maximum Dry-Bulb {BasedOnField A3}
  97225,                                  ! Barometric Pressure {Pa}
  3.7,                                    ! Wind Speed {m/s}
  180,                                    ! Wind Direction {deg}
  0,                                      ! Sky Clearness
  0,                                      ! Rain Indicator
  0,                                      ! Snow Indicator
  21,                                     ! Day of Month
  7,                                      ! Month
  SummerDesignDay,                        ! Day Type
  0,                                      ! Daylight Saving Time Indicator
  Wetbulb,                                ! Humidity Indicating Type
  ,                                       ! Humidity Indicating Day Schedule Name
  DefaultMultipliers,                     ! Dry-Bulb Temperature Range Modifier Type
  ,                                       ! Dry-Bulb Temperature Range Modifier Schedule Name
  ASHRAETau,                              ! Solar Model Indicator
  ,                                       ! Beam Solar Day Schedule Name
  ,                                       ! Diffuse Solar Day Schedule Name
  0.4,                                    ! ASHRAE Taub {dimensionless}
  2.246;                                  ! ASHRAE Taud {dimensionless}

OS:ComponentData,
  {4fef31c5-d06f-44fb-aeef-a5974db9e5fa}, ! Handle
  Component Data 1,                       ! Name
  {de0ba682-a22f-463e-8941-e6e9043061cd}, ! UUID
  {dd1adac5-c854-496e-9881-59849e4b094e}, ! Version UUID
  1366308281,                             ! Creation Timestamp
  1366308281,                             ! Version Timestamp
  {47e644e0-46cf-4ddb-8ee2-50dcaf66f2de}; ! Name of Object 1

