
OS:Version,
  {556453dd-00ba-41b6-9fef-a6e535a355bc}, ! Handle
  0.9.3;                                  ! Version Identifier

OS:SizingPeriod:DesignDay,
  {f18340ca-5ea6-4ee4-89f2-46adc218ca8b}, ! Handle
  BURLINGTON Ann Clg 1% Condns DB=>MWB,   ! Name
  29.6,                                   ! Maximum Dry-Bulb Temperature {C}
  10.7,                                   ! Daily Dry-Bulb Temperature Range {deltaC}
  20.9,                                   ! Humidity Indicating Conditions at Maximum Dry-Bulb {BasedOnField A3}
  100082,                                 ! Barometric Pressure {Pa}
  4.5,                                    ! Wind Speed {m/s}
  170,                                    ! Wind Direction {deg}
  0,                                      ! Sky Clearness
  0,                                      ! Rain Indicator
  0,                                      ! Snow Indicator
  21,                                     ! Day of Month
  7,                                      ! Month
  SummerDesignDay,                        ! Day Type
  0,                                      ! Daylight Saving Time Indicator
  Wetbulb,                                ! Humidity Indicating Type
  ,                                       ! Humidity Indicating Day Schedule Name
  DefaultMultipliers,                     ! Dry-Bulb Temperature Range Modifier Type
  ,                                       ! Dry-Bulb Temperature Range Modifier Schedule Name
  ASHRAETau,                              ! Solar Model Indicator
  ,                                       ! Beam Solar Day Schedule Name
  ,                                       ! Diffuse Solar Day Schedule Name
  0.459,                                  ! ASHRAE Taub {dimensionless}
  2.002;                                  ! ASHRAE Taud {dimensionless}

OS:ComponentData,
  {b8ed10b8-f464-44d0-8d34-e0dc09c0c5c6}, ! Handle
  Component Data 1,                       ! Name
  {033cf357-2933-4dcf-9587-09506a755523}, ! UUID
  {6c3ea419-985f-404b-a555-2c1a1c6a922d}, ! Version UUID
  1366311235,                             ! Creation Timestamp
  1366311235,                             ! Version Timestamp
  {f18340ca-5ea6-4ee4-89f2-46adc218ca8b}; ! Name of Object 1

