
OS:Version,
  {6a002855-7bfe-400d-94cd-065d4c56d05a}, ! Handle
  0.9.3;                                  ! Version Identifier

OS:SizingPeriod:DesignDay,
  {5ff5a720-4728-4145-8516-e2a232a7e74d}, ! Handle
  Imperial Ann Clg 1% Condns WB=>MDB,     ! Name
  36.1,                                   ! Maximum Dry-Bulb Temperature {C}
  15.8,                                   ! Daily Dry-Bulb Temperature Range {deltaC}
  26.6,                                   ! Humidity Indicating Conditions at Maximum Dry-Bulb {BasedOnField A3}
  101529,                                 ! Barometric Pressure {Pa}
  3.5,                                    ! Wind Speed {m/s}
  110,                                    ! Wind Direction {deg}
  0,                                      ! Sky Clearness
  0,                                      ! Rain Indicator
  0,                                      ! Snow Indicator
  21,                                     ! Day of Month
  7,                                      ! Month
  SummerDesignDay,                        ! Day Type
  0,                                      ! Daylight Saving Time Indicator
  Wetbulb,                                ! Humidity Indicating Type
  ,                                       ! Humidity Indicating Day Schedule Name
  DefaultMultipliers,                     ! Dry-Bulb Temperature Range Modifier Type
  ,                                       ! Dry-Bulb Temperature Range Modifier Schedule Name
  ASHRAETau,                              ! Solar Model Indicator
  ,                                       ! Beam Solar Day Schedule Name
  ,                                       ! Diffuse Solar Day Schedule Name
  0.528,                                  ! ASHRAE Taub {dimensionless}
  1.788;                                  ! ASHRAE Taud {dimensionless}

OS:ComponentData,
  {e7dc76c6-e3d2-4b01-843b-f697b1ca2997}, ! Handle
  Component Data 1,                       ! Name
  {07fb564f-4ecf-4e00-9cf3-58c28b47f89a}, ! UUID
  {525ea43e-8011-429c-b045-8454b89c53c0}, ! Version UUID
  1366306454,                             ! Creation Timestamp
  1366306454,                             ! Version Timestamp
  {5ff5a720-4728-4145-8516-e2a232a7e74d}; ! Name of Object 1

