
OS:Version,
  {c64ac2e2-6f90-4e7f-9415-e1e7edff9bf9}, ! Handle
  0.9.3;                                  ! Version Identifier

OS:SizingPeriod:DesignDay,
  {23f5857d-4e88-495e-a6e7-b4d94054ce04}, ! Handle
  Anaktuvuk Pass Ann Htg 99.6% Condns DB, ! Name
  -39.3,                                  ! Maximum Dry-Bulb Temperature {C}
  0,                                      ! Daily Dry-Bulb Temperature Range {deltaC}
  -39.3,                                  ! Humidity Indicating Conditions at Maximum Dry-Bulb {BasedOnField A3}
  93677,                                  ! Barometric Pressure {Pa}
  2.5,                                    ! Wind Speed {m/s}
  20,                                     ! Wind Direction {deg}
  0,                                      ! Sky Clearness
  0,                                      ! Rain Indicator
  0,                                      ! Snow Indicator
  21,                                     ! Day of Month
  1,                                      ! Month
  WinterDesignDay,                        ! Day Type
  0,                                      ! Daylight Saving Time Indicator
  Wetbulb,                                ! Humidity Indicating Type
  ,                                       ! Humidity Indicating Day Schedule Name
  DefaultMultipliers,                     ! Dry-Bulb Temperature Range Modifier Type
  ,                                       ! Dry-Bulb Temperature Range Modifier Schedule Name
  ASHRAEClearSky;                         ! Solar Model Indicator

OS:ComponentData,
  {aeff2049-2d51-446b-b665-74afa5f346e2}, ! Handle
  Component Data 1,                       ! Name
  {b35d9eb8-a5e5-4e69-ae86-19a4d813cee5}, ! UUID
  {be95aa05-f101-4b40-bdea-8aeaa8eb2e22}, ! Version UUID
  1366304689,                             ! Creation Timestamp
  1366304689,                             ! Version Timestamp
  {23f5857d-4e88-495e-a6e7-b4d94054ce04}; ! Name of Object 1

