
OS:Version,
  {8bf7fcb7-7b47-47b3-ad2e-3106b3869287}, ! Handle
  0.9.3;                                  ! Version Identifier

OS:SizingPeriod:DesignDay,
  {74173f31-3df5-45b4-8dd6-65722846bfed}, ! Handle
  Burlington Ann Clg 1% Condns DB=>MWB,   ! Name
  32.4,                                   ! Maximum Dry-Bulb Temperature {C}
  10.3,                                   ! Daily Dry-Bulb Temperature Range {deltaC}
  24.2,                                   ! Humidity Indicating Conditions at Maximum Dry-Bulb {BasedOnField A3}
  98792,                                  ! Barometric Pressure {Pa}
  4.5,                                    ! Wind Speed {m/s}
  200,                                    ! Wind Direction {deg}
  0,                                      ! Sky Clearness
  0,                                      ! Rain Indicator
  0,                                      ! Snow Indicator
  21,                                     ! Day of Month
  7,                                      ! Month
  SummerDesignDay,                        ! Day Type
  0,                                      ! Daylight Saving Time Indicator
  Wetbulb,                                ! Humidity Indicating Type
  ,                                       ! Humidity Indicating Day Schedule Name
  DefaultMultipliers,                     ! Dry-Bulb Temperature Range Modifier Type
  ,                                       ! Dry-Bulb Temperature Range Modifier Schedule Name
  ASHRAETau,                              ! Solar Model Indicator
  ,                                       ! Beam Solar Day Schedule Name
  ,                                       ! Diffuse Solar Day Schedule Name
  0.45,                                   ! ASHRAE Taub {dimensionless}
  2.07;                                   ! ASHRAE Taud {dimensionless}

OS:ComponentData,
  {84e56034-dbbc-4cce-969a-07c3d085897b}, ! Handle
  Component Data 1,                       ! Name
  {11dc82e6-0794-4218-8272-a1301cf32c82}, ! UUID
  {20b1c925-b9ef-4110-8da5-f58c95586a89}, ! Version UUID
  1366307139,                             ! Creation Timestamp
  1366307139,                             ! Version Timestamp
  {74173f31-3df5-45b4-8dd6-65722846bfed}; ! Name of Object 1

