
OS:Version,
  {b08f8b19-14d5-422a-9d20-f60ae09a7c0d}, ! Handle
  0.9.3;                                  ! Version Identifier

OS:SizingPeriod:DesignDay,
  {af0a3d4b-8b78-498d-8894-4507ec80892b}, ! Handle
  KOTZEBUE Ann Clg 1% Condns DP=>MDB,     ! Name
  16.3,                                   ! Maximum Dry-Bulb Temperature {C}
  4.9,                                    ! Daily Dry-Bulb Temperature Range {deltaC}
  13.3,                                   ! Humidity Indicating Conditions at Maximum Dry-Bulb {BasedOnField A3}
  101265,                                 ! Barometric Pressure {Pa}
  4.7,                                    ! Wind Speed {m/s}
  300,                                    ! Wind Direction {deg}
  0,                                      ! Sky Clearness
  0,                                      ! Rain Indicator
  0,                                      ! Snow Indicator
  21,                                     ! Day of Month
  7,                                      ! Month
  SummerDesignDay,                        ! Day Type
  0,                                      ! Daylight Saving Time Indicator
  Dewpoint,                               ! Humidity Indicating Type
  ,                                       ! Humidity Indicating Day Schedule Name
  DefaultMultipliers,                     ! Dry-Bulb Temperature Range Modifier Type
  ,                                       ! Dry-Bulb Temperature Range Modifier Schedule Name
  ASHRAETau,                              ! Solar Model Indicator
  ,                                       ! Beam Solar Day Schedule Name
  ,                                       ! Diffuse Solar Day Schedule Name
  0.374,                                  ! ASHRAE Taub {dimensionless}
  2.244;                                  ! ASHRAE Taud {dimensionless}

OS:ComponentData,
  {bf84ff13-bd9e-422d-a86a-ed7d3c526ae1}, ! Handle
  Component Data 1,                       ! Name
  {dfde4f0e-ea72-48dc-a968-77917bcaca46}, ! UUID
  {9787db72-ba5b-4703-8294-102e15dd98b9}, ! Version UUID
  1366305395,                             ! Creation Timestamp
  1366305395,                             ! Version Timestamp
  {af0a3d4b-8b78-498d-8894-4507ec80892b}; ! Name of Object 1

