
OS:Version,
  {952b8876-9e9b-40c8-873e-3e818b227dd8}, ! Handle
  0.9.3;                                  ! Version Identifier

OS:SizingPeriod:DesignDay,
  {64223687-be3d-4931-a362-7304fca0844f}, ! Handle
  Jack Northrop Fld H Ann Hum_n 99.6% Condns DP=>MCDB, ! Name
  17.3,                                   ! Maximum Dry-Bulb Temperature {C}
  0,                                      ! Daily Dry-Bulb Temperature Range {deltaC}
  -9.8,                                   ! Humidity Indicating Conditions at Maximum Dry-Bulb {BasedOnField A3}
  101073,                                 ! Barometric Pressure {Pa}
  0.7,                                    ! Wind Speed {m/s}
  70,                                     ! Wind Direction {deg}
  0,                                      ! Sky Clearness
  0,                                      ! Rain Indicator
  0,                                      ! Snow Indicator
  21,                                     ! Day of Month
  12,                                     ! Month
  WinterDesignDay,                        ! Day Type
  0,                                      ! Daylight Saving Time Indicator
  Dewpoint,                               ! Humidity Indicating Type
  ,                                       ! Humidity Indicating Day Schedule Name
  DefaultMultipliers,                     ! Dry-Bulb Temperature Range Modifier Type
  ,                                       ! Dry-Bulb Temperature Range Modifier Schedule Name
  ASHRAEClearSky;                         ! Solar Model Indicator

OS:ComponentData,
  {04f03571-108a-4ba4-85f9-c5c98d17f2dc}, ! Handle
  Component Data 1,                       ! Name
  {31eb3055-e5a9-4ab3-84cc-86e2ebff83b9}, ! UUID
  {b25239fe-c9ee-4c8b-bc85-dea337f6b726}, ! Version UUID
  1366306446,                             ! Creation Timestamp
  1366306446,                             ! Version Timestamp
  {64223687-be3d-4931-a362-7304fca0844f}; ! Name of Object 1

