
OS:Version,
  {98d60d8f-669b-4b44-80d9-b7010e49af85}, ! Handle
  0.9.3;                                  ! Version Identifier

OS:SizingPeriod:DesignDay,
  {e69337e2-95d6-4200-883f-f54c7788575a}, ! Handle
  Lafayette Regional Ap Ann Htg Wind 99% Condns WS=>MCDB, ! Name
  15.4,                                   ! Maximum Dry-Bulb Temperature {C}
  0,                                      ! Daily Dry-Bulb Temperature Range {deltaC}
  15.4,                                   ! Humidity Indicating Conditions at Maximum Dry-Bulb {BasedOnField A3}
  101181,                                 ! Barometric Pressure {Pa}
  9.4,                                    ! Wind Speed {m/s}
  10,                                     ! Wind Direction {deg}
  0,                                      ! Sky Clearness
  0,                                      ! Rain Indicator
  0,                                      ! Snow Indicator
  21,                                     ! Day of Month
  1,                                      ! Month
  WinterDesignDay,                        ! Day Type
  0,                                      ! Daylight Saving Time Indicator
  Wetbulb,                                ! Humidity Indicating Type
  ,                                       ! Humidity Indicating Day Schedule Name
  DefaultMultipliers,                     ! Dry-Bulb Temperature Range Modifier Type
  ,                                       ! Dry-Bulb Temperature Range Modifier Schedule Name
  ASHRAEClearSky;                         ! Solar Model Indicator

OS:ComponentData,
  {e1d607fb-2bf0-4931-a3ed-69ebfa9d79c0}, ! Handle
  Component Data 1,                       ! Name
  {2f99256b-7a09-4a1f-ab8d-b4884c5d61fe}, ! UUID
  {0a78365e-932c-4528-aba4-f5209ef8b000}, ! Version UUID
  1366307719,                             ! Creation Timestamp
  1366307719,                             ! Version Timestamp
  {e69337e2-95d6-4200-883f-f54c7788575a}; ! Name of Object 1

