
OS:Version,
  {305a9241-0915-49ca-9484-24ff146a28de}, ! Handle
  0.9.3;                                  ! Version Identifier

OS:SizingPeriod:DesignDay,
  {e5d15539-4ac9-47cc-a6fa-ff27bd15f23c}, ! Handle
  Kona Intl At Keahol Ann Clg .4% Condns Enth=>MDB, ! Name
  29.4,                                   ! Maximum Dry-Bulb Temperature {C}
  5.8,                                    ! Daily Dry-Bulb Temperature Range {deltaC}
  76700,                                  ! Humidity Indicating Conditions at Maximum Dry-Bulb {BasedOnField A3}
  101145,                                 ! Barometric Pressure {Pa}
  5.7,                                    ! Wind Speed {m/s}
  210,                                    ! Wind Direction {deg}
  0,                                      ! Sky Clearness
  0,                                      ! Rain Indicator
  0,                                      ! Snow Indicator
  21,                                     ! Day of Month
  8,                                      ! Month
  SummerDesignDay,                        ! Day Type
  0,                                      ! Daylight Saving Time Indicator
  Enthalpy,                               ! Humidity Indicating Type
  ,                                       ! Humidity Indicating Day Schedule Name
  DefaultMultipliers,                     ! Dry-Bulb Temperature Range Modifier Type
  ,                                       ! Dry-Bulb Temperature Range Modifier Schedule Name
  ASHRAETau,                              ! Solar Model Indicator
  ,                                       ! Beam Solar Day Schedule Name
  ,                                       ! Diffuse Solar Day Schedule Name
  0.404,                                  ! ASHRAE Taub {dimensionless}
  2.462;                                  ! ASHRAE Taud {dimensionless}

OS:ComponentData,
  {b451cadf-3248-461d-932e-6b9afecdf2e6}, ! Handle
  Component Data 1,                       ! Name
  {f25a4f65-18d9-41d9-bbd1-191fb690b79c}, ! UUID
  {21d2b970-08d1-479c-a395-9797de1d3f3e}, ! Version UUID
  1366307109,                             ! Creation Timestamp
  1366307109,                             ! Version Timestamp
  {e5d15539-4ac9-47cc-a6fa-ff27bd15f23c}; ! Name of Object 1

