
OS:Version,
  {c6a17ace-74cb-458c-ad7d-2a55cd6099cd}, ! Handle
  0.9.3;                                  ! Version Identifier

OS:SizingPeriod:DesignDay,
  {8dfdfd72-8f14-40e8-94df-8212aaf21518}, ! Handle
  Duluth International Arpt Ann Clg 1% Condns Enth=>MDB, ! Name
  25.7,                                   ! Maximum Dry-Bulb Temperature {C}
  10.9,                                   ! Daily Dry-Bulb Temperature Range {deltaC}
  63700,                                  ! Humidity Indicating Conditions at Maximum Dry-Bulb {BasedOnField A3}
  96230,                                  ! Barometric Pressure {Pa}
  5.2,                                    ! Wind Speed {m/s}
  220,                                    ! Wind Direction {deg}
  0,                                      ! Sky Clearness
  0,                                      ! Rain Indicator
  0,                                      ! Snow Indicator
  21,                                     ! Day of Month
  7,                                      ! Month
  SummerDesignDay,                        ! Day Type
  0,                                      ! Daylight Saving Time Indicator
  Enthalpy,                               ! Humidity Indicating Type
  ,                                       ! Humidity Indicating Day Schedule Name
  DefaultMultipliers,                     ! Dry-Bulb Temperature Range Modifier Type
  ,                                       ! Dry-Bulb Temperature Range Modifier Schedule Name
  ASHRAETau,                              ! Solar Model Indicator
  ,                                       ! Beam Solar Day Schedule Name
  ,                                       ! Diffuse Solar Day Schedule Name
  0.398,                                  ! ASHRAE Taub {dimensionless}
  2.218;                                  ! ASHRAE Taud {dimensionless}

OS:ComponentData,
  {4d2b3c37-ac03-4cec-b53e-d86c7d1df921}, ! Handle
  Component Data 1,                       ! Name
  {757c515f-6533-4e38-adb8-1e44582932b5}, ! UUID
  {70b0cc00-e42d-4b98-9fa3-6446af1ad45c}, ! Version UUID
  1366308208,                             ! Creation Timestamp
  1366308208,                             ! Version Timestamp
  {8dfdfd72-8f14-40e8-94df-8212aaf21518}; ! Name of Object 1

