
OS:Version,
  {0b7d9be0-6f84-4cc4-861d-a49efd247f83}, ! Handle
  0.9.3;                                  ! Version Identifier

OS:SizingPeriod:DesignDay,
  {0b23feeb-a9e3-4ace-a962-e762493c0928}, ! Handle
  Alamosa San Luis Valley Rgnl Ann Hum_n 99.6% Condns DP=>MCDB, ! Name
  -23.4,                                  ! Maximum Dry-Bulb Temperature {C}
  0,                                      ! Daily Dry-Bulb Temperature Range {deltaC}
  -28,                                    ! Humidity Indicating Conditions at Maximum Dry-Bulb {BasedOnField A3}
  76617,                                  ! Barometric Pressure {Pa}
  1.2,                                    ! Wind Speed {m/s}
  270,                                    ! Wind Direction {deg}
  0,                                      ! Sky Clearness
  0,                                      ! Rain Indicator
  0,                                      ! Snow Indicator
  21,                                     ! Day of Month
  1,                                      ! Month
  WinterDesignDay,                        ! Day Type
  0,                                      ! Daylight Saving Time Indicator
  Dewpoint,                               ! Humidity Indicating Type
  ,                                       ! Humidity Indicating Day Schedule Name
  DefaultMultipliers,                     ! Dry-Bulb Temperature Range Modifier Type
  ,                                       ! Dry-Bulb Temperature Range Modifier Schedule Name
  ASHRAEClearSky;                         ! Solar Model Indicator

