
OS:Version,
  {3fefde55-0236-4092-b1fa-e38064ef40f7}, ! Handle
  0.9.3;                                  ! Version Identifier

OS:SizingPeriod:DesignDay,
  {69c6bc86-402b-4fa6-9332-98f524cee9b5}, ! Handle
  Corpus Christi Intl Arpt  Ut Ann Htg 99.6% Condns DB, ! Name
  0.4,                                    ! Maximum Dry-Bulb Temperature {C}
  0,                                      ! Daily Dry-Bulb Temperature Range {deltaC}
  0.4,                                    ! Humidity Indicating Conditions at Maximum Dry-Bulb {BasedOnField A3}
  101253,                                 ! Barometric Pressure {Pa}
  5.4,                                    ! Wind Speed {m/s}
  350,                                    ! Wind Direction {deg}
  0,                                      ! Sky Clearness
  0,                                      ! Rain Indicator
  0,                                      ! Snow Indicator
  21,                                     ! Day of Month
  1,                                      ! Month
  WinterDesignDay,                        ! Day Type
  0,                                      ! Daylight Saving Time Indicator
  Wetbulb,                                ! Humidity Indicating Type
  ,                                       ! Humidity Indicating Day Schedule Name
  DefaultMultipliers,                     ! Dry-Bulb Temperature Range Modifier Type
  ,                                       ! Dry-Bulb Temperature Range Modifier Schedule Name
  ASHRAEClearSky;                         ! Solar Model Indicator

OS:ComponentData,
  {7cb30fe8-99ea-4903-b1c1-c36d8d57aa3f}, ! Handle
  Component Data 1,                       ! Name
  {322fb600-578c-4387-915c-20b145ecc80f}, ! UUID
  {59726554-1699-4d60-9968-5bb4493081fc}, ! Version UUID
  1366310629,                             ! Creation Timestamp
  1366310629,                             ! Version Timestamp
  {69c6bc86-402b-4fa6-9332-98f524cee9b5}; ! Name of Object 1

