
OS:Version,
  {71b02dfe-cefe-43b8-b431-31ac8e53bc79}, ! Handle
  0.9.3;                                  ! Version Identifier

OS:SizingPeriod:DesignDay,
  {7378579e-75c5-402d-9feb-cd037659f4bb}, ! Handle
  Beaumont/Port Arthur Ann Clg .4% Condns DB=>MWB, ! Name
  34.6,                                   ! Maximum Dry-Bulb Temperature {C}
  8.9,                                    ! Daily Dry-Bulb Temperature Range {deltaC}
  25.6,                                   ! Humidity Indicating Conditions at Maximum Dry-Bulb {BasedOnField A3}
  101241,                                 ! Barometric Pressure {Pa}
  3.6,                                    ! Wind Speed {m/s}
  200,                                    ! Wind Direction {deg}
  0,                                      ! Sky Clearness
  0,                                      ! Rain Indicator
  0,                                      ! Snow Indicator
  21,                                     ! Day of Month
  7,                                      ! Month
  SummerDesignDay,                        ! Day Type
  0,                                      ! Daylight Saving Time Indicator
  Wetbulb,                                ! Humidity Indicating Type
  ,                                       ! Humidity Indicating Day Schedule Name
  DefaultMultipliers,                     ! Dry-Bulb Temperature Range Modifier Type
  ,                                       ! Dry-Bulb Temperature Range Modifier Schedule Name
  ASHRAETau,                              ! Solar Model Indicator
  ,                                       ! Beam Solar Day Schedule Name
  ,                                       ! Diffuse Solar Day Schedule Name
  0.515,                                  ! ASHRAE Taub {dimensionless}
  1.943;                                  ! ASHRAE Taud {dimensionless}

OS:ComponentData,
  {d81c8ef8-f6b6-4c39-812b-b5df6b39dcc9}, ! Handle
  Component Data 1,                       ! Name
  {c5caa584-018d-4809-b9fe-d8bf641d6ed4}, ! UUID
  {9602b1c4-bb55-40a3-a537-262d2231983f}, ! Version UUID
  1366310848,                             ! Creation Timestamp
  1366310848,                             ! Version Timestamp
  {7378579e-75c5-402d-9feb-cd037659f4bb}; ! Name of Object 1

