
OS:Version,
  {53ef92a7-2b8b-48fe-90b1-4c559198c49a}, ! Handle
  0.9.3;                                  ! Version Identifier

OS:SizingPeriod:DesignDay,
  {09d0a2b0-0ac6-4e44-b187-2086d9842321}, ! Handle
  Carlsbad Cavern City Air Term Ann Clg 1% Condns DP=>MDB, ! Name
  23.8,                                   ! Maximum Dry-Bulb Temperature {C}
  14.5,                                   ! Daily Dry-Bulb Temperature Range {deltaC}
  19.4,                                   ! Humidity Indicating Conditions at Maximum Dry-Bulb {BasedOnField A3}
  90038,                                  ! Barometric Pressure {Pa}
  4.9,                                    ! Wind Speed {m/s}
  140,                                    ! Wind Direction {deg}
  0,                                      ! Sky Clearness
  0,                                      ! Rain Indicator
  0,                                      ! Snow Indicator
  21,                                     ! Day of Month
  7,                                      ! Month
  SummerDesignDay,                        ! Day Type
  0,                                      ! Daylight Saving Time Indicator
  Dewpoint,                               ! Humidity Indicating Type
  ,                                       ! Humidity Indicating Day Schedule Name
  DefaultMultipliers,                     ! Dry-Bulb Temperature Range Modifier Type
  ,                                       ! Dry-Bulb Temperature Range Modifier Schedule Name
  ASHRAETau,                              ! Solar Model Indicator
  ,                                       ! Beam Solar Day Schedule Name
  ,                                       ! Diffuse Solar Day Schedule Name
  0.494,                                  ! ASHRAE Taub {dimensionless}
  1.831;                                  ! ASHRAE Taud {dimensionless}

OS:ComponentData,
  {cc8036b2-0cfc-4442-8573-034dc4b96edc}, ! Handle
  Component Data 1,                       ! Name
  {ef348600-0344-4142-8b21-3e24e5340222}, ! UUID
  {34bb697f-b66b-4bd9-8c06-80221b2925cf}, ! Version UUID
  1366309375,                             ! Creation Timestamp
  1366309375,                             ! Version Timestamp
  {09d0a2b0-0ac6-4e44-b187-2086d9842321}; ! Name of Object 1

