
OS:Version,
  {3aa8d98b-fc09-40b2-a334-5078cb107ccf}, ! Handle
  0.9.3;                                  ! Version Identifier

OS:SizingPeriod:DesignDay,
  {aeeea2f5-7fa1-48e0-bf82-48f19655bb54}, ! Handle
  Concord Municipal Arpt Ann Clg .4% Condns DP=>MDB, ! Name
  25.8,                                   ! Maximum Dry-Bulb Temperature {C}
  12.8,                                   ! Daily Dry-Bulb Temperature Range {deltaC}
  22.1,                                   ! Humidity Indicating Conditions at Maximum Dry-Bulb {BasedOnField A3}
  100058,                                 ! Barometric Pressure {Pa}
  4.4,                                    ! Wind Speed {m/s}
  230,                                    ! Wind Direction {deg}
  0,                                      ! Sky Clearness
  0,                                      ! Rain Indicator
  0,                                      ! Snow Indicator
  21,                                     ! Day of Month
  7,                                      ! Month
  SummerDesignDay,                        ! Day Type
  0,                                      ! Daylight Saving Time Indicator
  Dewpoint,                               ! Humidity Indicating Type
  ,                                       ! Humidity Indicating Day Schedule Name
  DefaultMultipliers,                     ! Dry-Bulb Temperature Range Modifier Type
  ,                                       ! Dry-Bulb Temperature Range Modifier Schedule Name
  ASHRAETau,                              ! Solar Model Indicator
  ,                                       ! Beam Solar Day Schedule Name
  ,                                       ! Diffuse Solar Day Schedule Name
  0.459,                                  ! ASHRAE Taub {dimensionless}
  2.014;                                  ! ASHRAE Taud {dimensionless}

OS:ComponentData,
  {71b678a0-f3bf-4350-b120-7219e9bb0c99}, ! Handle
  Component Data 1,                       ! Name
  {4b311d15-525d-4bf0-87b1-55f51903ed33}, ! UUID
  {e1e89684-2ddd-408c-a5f7-2f4a17bc8a1c}, ! Version UUID
  1366309232,                             ! Creation Timestamp
  1366309232,                             ! Version Timestamp
  {aeeea2f5-7fa1-48e0-bf82-48f19655bb54}; ! Name of Object 1

