
OS:Version,
  {bcc6c5fb-7be2-4d9c-b76c-921914ea934c}, ! Handle
  0.9.3;                                  ! Version Identifier

OS:SizingPeriod:DesignDay,
  {52dd87c9-fe91-4df2-8f89-2db11591d624}, ! Handle
  Lexington Ann Clg 1% Condns WB=>MDB,    ! Name
  29.6,                                   ! Maximum Dry-Bulb Temperature {C}
  10.2,                                   ! Daily Dry-Bulb Temperature Range {deltaC}
  24.5,                                   ! Humidity Indicating Conditions at Maximum Dry-Bulb {BasedOnField A3}
  97761,                                  ! Barometric Pressure {Pa}
  3.7,                                    ! Wind Speed {m/s}
  250,                                    ! Wind Direction {deg}
  0,                                      ! Sky Clearness
  0,                                      ! Rain Indicator
  0,                                      ! Snow Indicator
  21,                                     ! Day of Month
  7,                                      ! Month
  SummerDesignDay,                        ! Day Type
  0,                                      ! Daylight Saving Time Indicator
  Wetbulb,                                ! Humidity Indicating Type
  ,                                       ! Humidity Indicating Day Schedule Name
  DefaultMultipliers,                     ! Dry-Bulb Temperature Range Modifier Type
  ,                                       ! Dry-Bulb Temperature Range Modifier Schedule Name
  ASHRAETau,                              ! Solar Model Indicator
  ,                                       ! Beam Solar Day Schedule Name
  ,                                       ! Diffuse Solar Day Schedule Name
  0.503,                                  ! ASHRAE Taub {dimensionless}
  1.885;                                  ! ASHRAE Taud {dimensionless}

OS:ComponentData,
  {3b41bf9d-dea8-4673-bb71-d09cf7b8698b}, ! Handle
  Component Data 1,                       ! Name
  {248e5c33-0496-4a9a-8cde-4383aa41a9a2}, ! UUID
  {628c1ba3-1428-4925-bd12-cb623013bb73}, ! Version UUID
  1366307648,                             ! Creation Timestamp
  1366307648,                             ! Version Timestamp
  {52dd87c9-fe91-4df2-8f89-2db11591d624}; ! Name of Object 1

