
OS:Version,
  {727ae978-7e77-44f9-9981-3f2b22709012}, ! Handle
  0.9.3;                                  ! Version Identifier

OS:SizingPeriod:DesignDay,
  {da958fe6-a0c1-4815-8ea4-114663fe3811}, ! Handle
  Islip Long Isl Macarthur Ap Ann Clg 2% Condns DB=>MWB, ! Name
  28.2,                                   ! Maximum Dry-Bulb Temperature {C}
  8.4,                                    ! Daily Dry-Bulb Temperature Range {deltaC}
  21.6,                                   ! Humidity Indicating Conditions at Maximum Dry-Bulb {BasedOnField A3}
  101013,                                 ! Barometric Pressure {Pa}
  4.9,                                    ! Wind Speed {m/s}
  220,                                    ! Wind Direction {deg}
  0,                                      ! Sky Clearness
  0,                                      ! Rain Indicator
  0,                                      ! Snow Indicator
  21,                                     ! Day of Month
  7,                                      ! Month
  SummerDesignDay,                        ! Day Type
  0,                                      ! Daylight Saving Time Indicator
  Wetbulb,                                ! Humidity Indicating Type
  ,                                       ! Humidity Indicating Day Schedule Name
  DefaultMultipliers,                     ! Dry-Bulb Temperature Range Modifier Type
  ,                                       ! Dry-Bulb Temperature Range Modifier Schedule Name
  ASHRAETau,                              ! Solar Model Indicator
  ,                                       ! Beam Solar Day Schedule Name
  ,                                       ! Diffuse Solar Day Schedule Name
  0.533,                                  ! ASHRAE Taub {dimensionless}
  1.82;                                   ! ASHRAE Taud {dimensionless}

OS:ComponentData,
  {6b47a9da-2110-4359-acdb-02a0e13b82a4}, ! Handle
  Component Data 1,                       ! Name
  {3bdbca19-b3fb-4021-b08f-16625e193739}, ! UUID
  {ca9eea2d-e35b-4008-a64f-c339f20bd79a}, ! Version UUID
  1366309631,                             ! Creation Timestamp
  1366309631,                             ! Version Timestamp
  {da958fe6-a0c1-4815-8ea4-114663fe3811}; ! Name of Object 1

