
OS:Version,
  {3891418f-3f6d-443c-a067-3fe595c1eebd}, ! Handle
  0.9.3;                                  ! Version Identifier

OS:SizingPeriod:DesignDay,
  {a03be0ce-85bc-4425-b36f-3bf9048f82ee}, ! Handle
  Dodge City Ann Hum_n 99% Condns DP=>MCDB, ! Name
  -10.2,                                  ! Maximum Dry-Bulb Temperature {C}
  0,                                      ! Daily Dry-Bulb Temperature Range {deltaC}
  -18,                                    ! Humidity Indicating Conditions at Maximum Dry-Bulb {BasedOnField A3}
  92188,                                  ! Barometric Pressure {Pa}
  5.6,                                    ! Wind Speed {m/s}
  0,                                      ! Wind Direction {deg}
  0,                                      ! Sky Clearness
  0,                                      ! Rain Indicator
  0,                                      ! Snow Indicator
  21,                                     ! Day of Month
  1,                                      ! Month
  WinterDesignDay,                        ! Day Type
  0,                                      ! Daylight Saving Time Indicator
  Dewpoint,                               ! Humidity Indicating Type
  ,                                       ! Humidity Indicating Day Schedule Name
  DefaultMultipliers,                     ! Dry-Bulb Temperature Range Modifier Type
  ,                                       ! Dry-Bulb Temperature Range Modifier Schedule Name
  ASHRAEClearSky;                         ! Solar Model Indicator

OS:ComponentData,
  {4d7f889d-03f7-4fa2-a22e-7ffa00bc3673}, ! Handle
  Component Data 1,                       ! Name
  {b6a87a68-f597-4a28-9d60-4c23194b394a}, ! UUID
  {5f2bea86-5d10-40e2-b7c7-2b3de176ce17}, ! Version UUID
  1366307513,                             ! Creation Timestamp
  1366307513,                             ! Version Timestamp
  {a03be0ce-85bc-4425-b36f-3bf9048f82ee}; ! Name of Object 1

