
OS:Version,
  {a68416ae-1297-452e-b5e7-58ca77125a62}, ! Handle
  0.9.3;                                  ! Version Identifier

OS:SizingPeriod:DesignDay,
  {df4c52a7-2b47-4260-ad7d-0a9e9d278afc}, ! Handle
  Ely Yelland Field Ann Clg 1% Condns DB=>MWB, ! Name
  31.4,                                   ! Maximum Dry-Bulb Temperature {C}
  20.3,                                   ! Daily Dry-Bulb Temperature Range {deltaC}
  13.6,                                   ! Humidity Indicating Conditions at Maximum Dry-Bulb {BasedOnField A3}
  80397,                                  ! Barometric Pressure {Pa}
  5.3,                                    ! Wind Speed {m/s}
  220,                                    ! Wind Direction {deg}
  0,                                      ! Sky Clearness
  0,                                      ! Rain Indicator
  0,                                      ! Snow Indicator
  21,                                     ! Day of Month
  7,                                      ! Month
  SummerDesignDay,                        ! Day Type
  0,                                      ! Daylight Saving Time Indicator
  Wetbulb,                                ! Humidity Indicating Type
  ,                                       ! Humidity Indicating Day Schedule Name
  DefaultMultipliers,                     ! Dry-Bulb Temperature Range Modifier Type
  ,                                       ! Dry-Bulb Temperature Range Modifier Schedule Name
  ASHRAETau,                              ! Solar Model Indicator
  ,                                       ! Beam Solar Day Schedule Name
  ,                                       ! Diffuse Solar Day Schedule Name
  0.442,                                  ! ASHRAE Taub {dimensionless}
  1.871;                                  ! ASHRAE Taud {dimensionless}

OS:ComponentData,
  {06341ca3-aced-4a69-95f8-e2b19374d006}, ! Handle
  Component Data 1,                       ! Name
  {9fb2449f-5c34-48c1-8665-2ae02836c8bc}, ! UUID
  {7321e3e1-f17d-4180-9c34-aeee561a850f}, ! Version UUID
  1366309477,                             ! Creation Timestamp
  1366309477,                             ! Version Timestamp
  {df4c52a7-2b47-4260-ad7d-0a9e9d278afc}; ! Name of Object 1

