
OS:Version,
  {6b0bdd83-3a63-4e8c-9dcd-23c7aa91a436}, ! Handle
  0.9.3;                                  ! Version Identifier

OS:SizingPeriod:DesignDay,
  {b20c2026-0b97-447c-9623-7142ebbe14dd}, ! Handle
  Hot Springs Ingalls Ann Clg 1% Condns DB=>MWB, ! Name
  27.2,                                   ! Maximum Dry-Bulb Temperature {C}
  7.7,                                    ! Daily Dry-Bulb Temperature Range {deltaC}
  19.5,                                   ! Humidity Indicating Conditions at Maximum Dry-Bulb {BasedOnField A3}
  88187,                                  ! Barometric Pressure {Pa}
  3.5,                                    ! Wind Speed {m/s}
  280,                                    ! Wind Direction {deg}
  0,                                      ! Sky Clearness
  0,                                      ! Rain Indicator
  0,                                      ! Snow Indicator
  21,                                     ! Day of Month
  7,                                      ! Month
  SummerDesignDay,                        ! Day Type
  0,                                      ! Daylight Saving Time Indicator
  Wetbulb,                                ! Humidity Indicating Type
  ,                                       ! Humidity Indicating Day Schedule Name
  DefaultMultipliers,                     ! Dry-Bulb Temperature Range Modifier Type
  ,                                       ! Dry-Bulb Temperature Range Modifier Schedule Name
  ASHRAETau,                              ! Solar Model Indicator
  ,                                       ! Beam Solar Day Schedule Name
  ,                                       ! Diffuse Solar Day Schedule Name
  0.445,                                  ! ASHRAE Taub {dimensionless}
  2.005;                                  ! ASHRAE Taud {dimensionless}

OS:ComponentData,
  {9e234af9-ae23-4520-bbe3-04c522d19415}, ! Handle
  Component Data 1,                       ! Name
  {e1634dd8-d587-470a-a2a2-f32ea9fbdcba}, ! UUID
  {6fa4f4e8-7d7c-4381-b25b-f3212e7175f5}, ! Version UUID
  1366311065,                             ! Creation Timestamp
  1366311065,                             ! Version Timestamp
  {b20c2026-0b97-447c-9623-7142ebbe14dd}; ! Name of Object 1

