
OS:Version,
  {3b966285-1bde-4af0-a555-4f8a44a23093}, ! Handle
  0.9.3;                                  ! Version Identifier

OS:SizingPeriod:DesignDay,
  {400c334e-98a3-4fdc-a781-c8f75f8f3d36}, ! Handle
  Harrison Faa Ap Ann Htg 99% Condns DB,  ! Name
  -9,                                     ! Maximum Dry-Bulb Temperature {C}
  0,                                      ! Daily Dry-Bulb Temperature Range {deltaC}
  -9,                                     ! Humidity Indicating Conditions at Maximum Dry-Bulb {BasedOnField A3}
  96392,                                  ! Barometric Pressure {Pa}
  4.5,                                    ! Wind Speed {m/s}
  310,                                    ! Wind Direction {deg}
  0,                                      ! Sky Clearness
  0,                                      ! Rain Indicator
  0,                                      ! Snow Indicator
  21,                                     ! Day of Month
  1,                                      ! Month
  WinterDesignDay,                        ! Day Type
  0,                                      ! Daylight Saving Time Indicator
  Wetbulb,                                ! Humidity Indicating Type
  ,                                       ! Humidity Indicating Day Schedule Name
  DefaultMultipliers,                     ! Dry-Bulb Temperature Range Modifier Type
  ,                                       ! Dry-Bulb Temperature Range Modifier Schedule Name
  ASHRAEClearSky;                         ! Solar Model Indicator

OS:ComponentData,
  {16d61569-ec2c-4770-94bd-61ed87da94de}, ! Handle
  Component Data 1,                       ! Name
  {91d724cd-becc-4deb-aa0b-0cac7151a913}, ! UUID
  {05a52721-cfb8-463b-97b4-20aa65dc846c}, ! Version UUID
  1366306214,                             ! Creation Timestamp
  1366306214,                             ! Version Timestamp
  {400c334e-98a3-4fdc-a781-c8f75f8f3d36}; ! Name of Object 1

