
OS:Version,
  {1480ca73-923c-4204-b72f-69c6a636ad6e}, ! Handle
  0.9.3;                                  ! Version Identifier

OS:SizingPeriod:DesignDay,
  {5da75a1d-2bab-484d-90dd-30cb5dcfcd01}, ! Handle
  Barbers Point Nas Ann Clg 1% Condns Enth=>MDB, ! Name
  29.5,                                   ! Maximum Dry-Bulb Temperature {C}
  8.6,                                    ! Daily Dry-Bulb Temperature Range {deltaC}
  74800,                                  ! Humidity Indicating Conditions at Maximum Dry-Bulb {BasedOnField A3}
  101145,                                 ! Barometric Pressure {Pa}
  5.1,                                    ! Wind Speed {m/s}
  60,                                     ! Wind Direction {deg}
  0,                                      ! Sky Clearness
  0,                                      ! Rain Indicator
  0,                                      ! Snow Indicator
  21,                                     ! Day of Month
  8,                                      ! Month
  SummerDesignDay,                        ! Day Type
  0,                                      ! Daylight Saving Time Indicator
  Enthalpy,                               ! Humidity Indicating Type
  ,                                       ! Humidity Indicating Day Schedule Name
  DefaultMultipliers,                     ! Dry-Bulb Temperature Range Modifier Type
  ,                                       ! Dry-Bulb Temperature Range Modifier Schedule Name
  ASHRAETau,                              ! Solar Model Indicator
  ,                                       ! Beam Solar Day Schedule Name
  ,                                       ! Diffuse Solar Day Schedule Name
  0.382,                                  ! ASHRAE Taub {dimensionless}
  2.522;                                  ! ASHRAE Taud {dimensionless}

OS:ComponentData,
  {1c3eacb0-b7ad-46a8-813e-441badcec0b2}, ! Handle
  Component Data 1,                       ! Name
  {5c3de39f-57de-439a-ac75-e9d8e62a9a94}, ! UUID
  {1c2f0213-174e-4657-81bb-35feb6f87915}, ! Version UUID
  1366307074,                             ! Creation Timestamp
  1366307074,                             ! Version Timestamp
  {5da75a1d-2bab-484d-90dd-30cb5dcfcd01}; ! Name of Object 1

