
OS:Version,
  {2864e696-7c34-47a9-a2c3-9d4063865668}, ! Handle
  0.9.3;                                  ! Version Identifier

OS:SizingPeriod:DesignDay,
  {a800e52b-3779-47d8-97b0-19625f4dee43}, ! Handle
  Clinton Muni  Awos Ann Clg 1% Condns WB=>MDB, ! Name
  29,                                     ! Maximum Dry-Bulb Temperature {C}
  10.9,                                   ! Daily Dry-Bulb Temperature Range {deltaC}
  24.4,                                   ! Humidity Indicating Conditions at Maximum Dry-Bulb {BasedOnField A3}
  98757,                                  ! Barometric Pressure {Pa}
  5.3,                                    ! Wind Speed {m/s}
  210,                                    ! Wind Direction {deg}
  0,                                      ! Sky Clearness
  0,                                      ! Rain Indicator
  0,                                      ! Snow Indicator
  21,                                     ! Day of Month
  7,                                      ! Month
  SummerDesignDay,                        ! Day Type
  0,                                      ! Daylight Saving Time Indicator
  Wetbulb,                                ! Humidity Indicating Type
  ,                                       ! Humidity Indicating Day Schedule Name
  DefaultMultipliers,                     ! Dry-Bulb Temperature Range Modifier Type
  ,                                       ! Dry-Bulb Temperature Range Modifier Schedule Name
  ASHRAETau,                              ! Solar Model Indicator
  ,                                       ! Beam Solar Day Schedule Name
  ,                                       ! Diffuse Solar Day Schedule Name
  0.444,                                  ! ASHRAE Taub {dimensionless}
  2.086;                                  ! ASHRAE Taud {dimensionless}

OS:ComponentData,
  {c3cfc919-db70-4be1-a0c6-62687ffeeed7}, ! Handle
  Component Data 1,                       ! Name
  {ac40785f-cf5a-43a5-8bc5-31274c6b6c3e}, ! UUID
  {51aebaee-45ed-487c-8c3c-1c276b2dd76e}, ! Version UUID
  1366307160,                             ! Creation Timestamp
  1366307160,                             ! Version Timestamp
  {a800e52b-3779-47d8-97b0-19625f4dee43}; ! Name of Object 1

