
OS:Version,
  {2c159977-4daa-4394-9ea9-cb93ae36e331}, ! Handle
  0.9.3;                                  ! Version Identifier

OS:SizingPeriod:DesignDay,
  {6e534456-77cb-4789-a477-5e9b9d244947}, ! Handle
  Lubbock/Int'l Arpt Ann Clg 2% Condns DB=>MWB, ! Name
  34.4,                                   ! Maximum Dry-Bulb Temperature {C}
  13.1,                                   ! Daily Dry-Bulb Temperature Range {deltaC}
  19.7,                                   ! Humidity Indicating Conditions at Maximum Dry-Bulb {BasedOnField A3}
  90005,                                  ! Barometric Pressure {Pa}
  6.4,                                    ! Wind Speed {m/s}
  170,                                    ! Wind Direction {deg}
  0,                                      ! Sky Clearness
  0,                                      ! Rain Indicator
  0,                                      ! Snow Indicator
  21,                                     ! Day of Month
  7,                                      ! Month
  SummerDesignDay,                        ! Day Type
  0,                                      ! Daylight Saving Time Indicator
  Wetbulb,                                ! Humidity Indicating Type
  ,                                       ! Humidity Indicating Day Schedule Name
  DefaultMultipliers,                     ! Dry-Bulb Temperature Range Modifier Type
  ,                                       ! Dry-Bulb Temperature Range Modifier Schedule Name
  ASHRAETau,                              ! Solar Model Indicator
  ,                                       ! Beam Solar Day Schedule Name
  ,                                       ! Diffuse Solar Day Schedule Name
  0.396,                                  ! ASHRAE Taub {dimensionless}
  2.241;                                  ! ASHRAE Taud {dimensionless}

OS:ComponentData,
  {e07ce52f-7e32-46cc-ad80-fb427f65f7af}, ! Handle
  Component Data 1,                       ! Name
  {0f09c14c-899a-43ba-82b3-a349d91674b4}, ! UUID
  {87ceb6c7-bd83-4e58-8dc7-a6cceceac66c}, ! Version UUID
  1366310795,                             ! Creation Timestamp
  1366310795,                             ! Version Timestamp
  {6e534456-77cb-4789-a477-5e9b9d244947}; ! Name of Object 1

