
OS:Version,
  {0915a189-1d6e-445f-ba1d-a7ecf3630645}, ! Handle
  0.9.3;                                  ! Version Identifier

OS:SizingPeriod:DesignDay,
  {671392f0-7092-4e01-922a-66d0da4b941a}, ! Handle
  Chicago/Midway Ann Clg .4% Condns Enth=>MDB, ! Name
  31.7,                                   ! Maximum Dry-Bulb Temperature {C}
  8.8,                                    ! Daily Dry-Bulb Temperature Range {deltaC}
  79600,                                  ! Humidity Indicating Conditions at Maximum Dry-Bulb {BasedOnField A3}
  99099,                                  ! Barometric Pressure {Pa}
  5.6,                                    ! Wind Speed {m/s}
  220,                                    ! Wind Direction {deg}
  0,                                      ! Sky Clearness
  0,                                      ! Rain Indicator
  0,                                      ! Snow Indicator
  21,                                     ! Day of Month
  7,                                      ! Month
  SummerDesignDay,                        ! Day Type
  0,                                      ! Daylight Saving Time Indicator
  Enthalpy,                               ! Humidity Indicating Type
  ,                                       ! Humidity Indicating Day Schedule Name
  DefaultMultipliers,                     ! Dry-Bulb Temperature Range Modifier Type
  ,                                       ! Dry-Bulb Temperature Range Modifier Schedule Name
  ASHRAETau,                              ! Solar Model Indicator
  ,                                       ! Beam Solar Day Schedule Name
  ,                                       ! Diffuse Solar Day Schedule Name
  0.457,                                  ! ASHRAE Taub {dimensionless}
  2.043;                                  ! ASHRAE Taud {dimensionless}

OS:ComponentData,
  {18ccbab3-4df6-49e9-9f40-eceffe82217f}, ! Handle
  Component Data 1,                       ! Name
  {a980ad98-eb0c-4909-aa98-a1934df71148}, ! UUID
  {baf8de0a-2b7b-4d37-9439-b4a8f6e54b96}, ! Version UUID
  1366307340,                             ! Creation Timestamp
  1366307340,                             ! Version Timestamp
  {671392f0-7092-4e01-922a-66d0da4b941a}; ! Name of Object 1

