
OS:Version,
  {7ebbd3b9-62e5-44c6-8e87-7b6b663e341c}, ! Handle
  0.9.3;                                  ! Version Identifier

OS:SizingPeriod:DesignDay,
  {6766d0dc-de03-4f93-bcba-244007b76166}, ! Handle
  Cincinnati Northern Ky Ap Ann Clg .4% Condns WB=>MDB, ! Name
  30.6,                                   ! Maximum Dry-Bulb Temperature {C}
  10.3,                                   ! Daily Dry-Bulb Temperature Range {deltaC}
  25.2,                                   ! Humidity Indicating Conditions at Maximum Dry-Bulb {BasedOnField A3}
  98182,                                  ! Barometric Pressure {Pa}
  4.3,                                    ! Wind Speed {m/s}
  230,                                    ! Wind Direction {deg}
  0,                                      ! Sky Clearness
  0,                                      ! Rain Indicator
  0,                                      ! Snow Indicator
  21,                                     ! Day of Month
  7,                                      ! Month
  SummerDesignDay,                        ! Day Type
  0,                                      ! Daylight Saving Time Indicator
  Wetbulb,                                ! Humidity Indicating Type
  ,                                       ! Humidity Indicating Day Schedule Name
  DefaultMultipliers,                     ! Dry-Bulb Temperature Range Modifier Type
  ,                                       ! Dry-Bulb Temperature Range Modifier Schedule Name
  ASHRAETau,                              ! Solar Model Indicator
  ,                                       ! Beam Solar Day Schedule Name
  ,                                       ! Diffuse Solar Day Schedule Name
  0.493,                                  ! ASHRAE Taub {dimensionless}
  1.911;                                  ! ASHRAE Taud {dimensionless}

OS:ComponentData,
  {ea9aedb7-8cda-46b2-810c-5d5ea8aa0b6b}, ! Handle
  Component Data 1,                       ! Name
  {e99a1495-0245-4820-85d4-7c323572cbc0}, ! UUID
  {cd7c3c2c-79ce-4b0b-b055-bfb5bececd67}, ! Version UUID
  1366307621,                             ! Creation Timestamp
  1366307621,                             ! Version Timestamp
  {6766d0dc-de03-4f93-bcba-244007b76166}; ! Name of Object 1

