
OS:Version,
  {36b4a8f6-d1d9-42d1-bdfd-2994577fd535}, ! Handle
  0.9.3;                                  ! Version Identifier

OS:SizingPeriod:DesignDay,
  {4fa9fdc6-1988-4675-b4be-8fa17006c59a}, ! Handle
  Lewistown Municipal Arpt Ann Clg .4% Condns DP=>MDB, ! Name
  20.6,                                   ! Maximum Dry-Bulb Temperature {C}
  15.7,                                   ! Daily Dry-Bulb Temperature Range {deltaC}
  14.4,                                   ! Humidity Indicating Conditions at Maximum Dry-Bulb {BasedOnField A3}
  87044,                                  ! Barometric Pressure {Pa}
  4.3,                                    ! Wind Speed {m/s}
  0,                                      ! Wind Direction {deg}
  0,                                      ! Sky Clearness
  0,                                      ! Rain Indicator
  0,                                      ! Snow Indicator
  21,                                     ! Day of Month
  7,                                      ! Month
  SummerDesignDay,                        ! Day Type
  0,                                      ! Daylight Saving Time Indicator
  Dewpoint,                               ! Humidity Indicating Type
  ,                                       ! Humidity Indicating Day Schedule Name
  DefaultMultipliers,                     ! Dry-Bulb Temperature Range Modifier Type
  ,                                       ! Dry-Bulb Temperature Range Modifier Schedule Name
  ASHRAETau,                              ! Solar Model Indicator
  ,                                       ! Beam Solar Day Schedule Name
  ,                                       ! Diffuse Solar Day Schedule Name
  0.382,                                  ! ASHRAE Taub {dimensionless}
  2.178;                                  ! ASHRAE Taud {dimensionless}

OS:ComponentData,
  {763ffffa-3382-4b31-8451-c64c7f384f7c}, ! Handle
  Component Data 1,                       ! Name
  {85550809-5195-4303-b0e1-0d77b8a5f297}, ! UUID
  {136dc2a5-ac85-4da1-b5fd-93cc74408492}, ! Version UUID
  1366308821,                             ! Creation Timestamp
  1366308821,                             ! Version Timestamp
  {4fa9fdc6-1988-4675-b4be-8fa17006c59a}; ! Name of Object 1

