
OS:Version,
  {186a74cc-7f62-400d-a13b-404d2414a1d4}, ! Handle
  0.9.3;                                  ! Version Identifier

OS:SizingPeriod:DesignDay,
  {dc5a2dc3-5bca-4470-a877-e879567b7635}, ! Handle
  Gage Airport Ann Htg 99.6% Condns DB,   ! Name
  -13.7,                                  ! Maximum Dry-Bulb Temperature {C}
  0,                                      ! Daily Dry-Bulb Temperature Range {deltaC}
  -13.7,                                  ! Humidity Indicating Conditions at Maximum Dry-Bulb {BasedOnField A3}
  93553,                                  ! Barometric Pressure {Pa}
  4.2,                                    ! Wind Speed {m/s}
  10,                                     ! Wind Direction {deg}
  0,                                      ! Sky Clearness
  0,                                      ! Rain Indicator
  0,                                      ! Snow Indicator
  21,                                     ! Day of Month
  1,                                      ! Month
  WinterDesignDay,                        ! Day Type
  0,                                      ! Daylight Saving Time Indicator
  Wetbulb,                                ! Humidity Indicating Type
  ,                                       ! Humidity Indicating Day Schedule Name
  DefaultMultipliers,                     ! Dry-Bulb Temperature Range Modifier Type
  ,                                       ! Dry-Bulb Temperature Range Modifier Schedule Name
  ASHRAEClearSky;                         ! Solar Model Indicator

OS:ComponentData,
  {49d72b19-b581-4619-8184-2883909c2349}, ! Handle
  Component Data 1,                       ! Name
  {789a06bf-7894-49a9-8f4c-bef2e24bb292}, ! UUID
  {0c89c300-1249-46bc-96ac-772e255f7bfd}, ! Version UUID
  1366309892,                             ! Creation Timestamp
  1366309892,                             ! Version Timestamp
  {dc5a2dc3-5bca-4470-a877-e879567b7635}; ! Name of Object 1

