
OS:Version,
  {d63b30a1-78b2-4174-b247-9c1e4022499a}, ! Handle
  0.9.3;                                  ! Version Identifier

OS:SizingPeriod:DesignDay,
  {05693d5d-d03b-46c2-aaa7-de928fce844e}, ! Handle
  Corpus Christi Ann Hum_n 99% Condns DP=>MCDB, ! Name
  8,                                      ! Maximum Dry-Bulb Temperature {C}
  0,                                      ! Daily Dry-Bulb Temperature Range {deltaC}
  -4.8,                                   ! Humidity Indicating Conditions at Maximum Dry-Bulb {BasedOnField A3}
  101169,                                 ! Barometric Pressure {Pa}
  5.4,                                    ! Wind Speed {m/s}
  350,                                    ! Wind Direction {deg}
  0,                                      ! Sky Clearness
  0,                                      ! Rain Indicator
  0,                                      ! Snow Indicator
  21,                                     ! Day of Month
  1,                                      ! Month
  WinterDesignDay,                        ! Day Type
  0,                                      ! Daylight Saving Time Indicator
  Dewpoint,                               ! Humidity Indicating Type
  ,                                       ! Humidity Indicating Day Schedule Name
  DefaultMultipliers,                     ! Dry-Bulb Temperature Range Modifier Type
  ,                                       ! Dry-Bulb Temperature Range Modifier Schedule Name
  ASHRAEClearSky;                         ! Solar Model Indicator

OS:ComponentData,
  {e22f6adc-fbcb-4d52-9a18-813e93557636}, ! Handle
  Component Data 1,                       ! Name
  {2f035f54-fec3-420d-81c7-b0c6ed877b33}, ! UUID
  {345d74e7-aac7-44a2-9ed2-8db534e8767e}, ! Version UUID
  1366310625,                             ! Creation Timestamp
  1366310625,                             ! Version Timestamp
  {05693d5d-d03b-46c2-aaa7-de928fce844e}; ! Name of Object 1

