
OS:Version,
  {cd9688ef-448d-476c-90fd-9a151820af91}, ! Handle
  0.9.3;                                  ! Version Identifier

OS:SizingPeriod:DesignDay,
  {f233ccb6-3c8d-4d73-9166-c8d264fc2d83}, ! Handle
  Cincinnati Municipal Ap Lunki Ann Hum_n 99.6% Condns DP=>MCDB, ! Name
  -13.4,                                  ! Maximum Dry-Bulb Temperature {C}
  0,                                      ! Daily Dry-Bulb Temperature Range {deltaC}
  -19.8,                                  ! Humidity Indicating Conditions at Maximum Dry-Bulb {BasedOnField A3}
  99548,                                  ! Barometric Pressure {Pa}
  3.7,                                    ! Wind Speed {m/s}
  240,                                    ! Wind Direction {deg}
  0,                                      ! Sky Clearness
  0,                                      ! Rain Indicator
  0,                                      ! Snow Indicator
  21,                                     ! Day of Month
  1,                                      ! Month
  WinterDesignDay,                        ! Day Type
  0,                                      ! Daylight Saving Time Indicator
  Dewpoint,                               ! Humidity Indicating Type
  ,                                       ! Humidity Indicating Day Schedule Name
  DefaultMultipliers,                     ! Dry-Bulb Temperature Range Modifier Type
  ,                                       ! Dry-Bulb Temperature Range Modifier Schedule Name
  ASHRAEClearSky;                         ! Solar Model Indicator

OS:ComponentData,
  {32a5eb33-9f9b-4e9b-a072-a7c89a5f65cd}, ! Handle
  Component Data 1,                       ! Name
  {154c9e84-4540-48b5-b8bd-83f3e6edfad0}, ! UUID
  {0940cbb5-bd39-4290-a7c8-c98364278288}, ! Version UUID
  1366309774,                             ! Creation Timestamp
  1366309774,                             ! Version Timestamp
  {f233ccb6-3c8d-4d73-9166-c8d264fc2d83}; ! Name of Object 1

