
OS:Version,
  {0088dd9b-f5c2-4a60-87a9-2ce6a27cb2c3}, ! Handle
  0.9.3;                                  ! Version Identifier

OS:SizingPeriod:DesignDay,
  {4deef045-ca41-4953-903c-05d642b25751}, ! Handle
  Green Bay Ann Clg .4% Condns DP=>MDB,   ! Name
  27.5,                                   ! Maximum Dry-Bulb Temperature {C}
  11.3,                                   ! Daily Dry-Bulb Temperature Range {deltaC}
  23.2,                                   ! Humidity Indicating Conditions at Maximum Dry-Bulb {BasedOnField A3}
  98780,                                  ! Barometric Pressure {Pa}
  5.1,                                    ! Wind Speed {m/s}
  200,                                    ! Wind Direction {deg}
  0,                                      ! Sky Clearness
  0,                                      ! Rain Indicator
  0,                                      ! Snow Indicator
  21,                                     ! Day of Month
  7,                                      ! Month
  SummerDesignDay,                        ! Day Type
  0,                                      ! Daylight Saving Time Indicator
  Dewpoint,                               ! Humidity Indicating Type
  ,                                       ! Humidity Indicating Day Schedule Name
  DefaultMultipliers,                     ! Dry-Bulb Temperature Range Modifier Type
  ,                                       ! Dry-Bulb Temperature Range Modifier Schedule Name
  ASHRAETau,                              ! Solar Model Indicator
  ,                                       ! Beam Solar Day Schedule Name
  ,                                       ! Diffuse Solar Day Schedule Name
  0.432,                                  ! ASHRAE Taub {dimensionless}
  2.118;                                  ! ASHRAE Taud {dimensionless}

OS:ComponentData,
  {0837c739-34fa-4ffc-bb8d-40b32a9cbefd}, ! Handle
  Component Data 1,                       ! Name
  {e95353f5-9315-4ee9-a131-89d37bb55455}, ! UUID
  {71d4702f-e2ba-4b5c-9bab-819d8c55cfac}, ! Version UUID
  1366311485,                             ! Creation Timestamp
  1366311485,                             ! Version Timestamp
  {4deef045-ca41-4953-903c-05d642b25751}; ! Name of Object 1

