
OS:Version,
  {776d6269-8b17-4e8c-9113-5ceb1acd0d35}, ! Handle
  0.9.3;                                  ! Version Identifier

OS:SizingPeriod:DesignDay,
  {711889b1-6d9c-4d4b-9469-017662581868}, ! Handle
  Chicago/Midway Ann Clg 2% Condns WB=>MDB, ! Name
  28.4,                                   ! Maximum Dry-Bulb Temperature {C}
  8.8,                                    ! Daily Dry-Bulb Temperature Range {deltaC}
  23.6,                                   ! Humidity Indicating Conditions at Maximum Dry-Bulb {BasedOnField A3}
  99099,                                  ! Barometric Pressure {Pa}
  5.6,                                    ! Wind Speed {m/s}
  220,                                    ! Wind Direction {deg}
  0,                                      ! Sky Clearness
  0,                                      ! Rain Indicator
  0,                                      ! Snow Indicator
  21,                                     ! Day of Month
  7,                                      ! Month
  SummerDesignDay,                        ! Day Type
  0,                                      ! Daylight Saving Time Indicator
  Wetbulb,                                ! Humidity Indicating Type
  ,                                       ! Humidity Indicating Day Schedule Name
  DefaultMultipliers,                     ! Dry-Bulb Temperature Range Modifier Type
  ,                                       ! Dry-Bulb Temperature Range Modifier Schedule Name
  ASHRAETau,                              ! Solar Model Indicator
  ,                                       ! Beam Solar Day Schedule Name
  ,                                       ! Diffuse Solar Day Schedule Name
  0.457,                                  ! ASHRAE Taub {dimensionless}
  2.043;                                  ! ASHRAE Taud {dimensionless}

OS:ComponentData,
  {2108dd3e-c4ae-4f4b-966e-6445bfcae6c6}, ! Handle
  Component Data 1,                       ! Name
  {36eaf509-bcf7-42cc-9f58-ff9e1cce8698}, ! UUID
  {f0fd0572-cd31-4e46-8fed-e666090cc14e}, ! Version UUID
  1366307339,                             ! Creation Timestamp
  1366307339,                             ! Version Timestamp
  {711889b1-6d9c-4d4b-9469-017662581868}; ! Name of Object 1

