
OS:Version,
  {76445d50-fbc5-401c-b3d8-a9daacfd9dc5}, ! Handle
  0.9.3;                                  ! Version Identifier

OS:SizingPeriod:DesignDay,
  {54b4dfcf-de40-4dc7-8acc-473546b22d64}, ! Handle
  Fosston Awos Ann Clg .4% Condns DP=>MDB, ! Name
  26.9,                                   ! Maximum Dry-Bulb Temperature {C}
  10.6,                                   ! Daily Dry-Bulb Temperature Range {deltaC}
  22.1,                                   ! Humidity Indicating Conditions at Maximum Dry-Bulb {BasedOnField A3}
  96750,                                  ! Barometric Pressure {Pa}
  5.4,                                    ! Wind Speed {m/s}
  160,                                    ! Wind Direction {deg}
  0,                                      ! Sky Clearness
  0,                                      ! Rain Indicator
  0,                                      ! Snow Indicator
  21,                                     ! Day of Month
  7,                                      ! Month
  SummerDesignDay,                        ! Day Type
  0,                                      ! Daylight Saving Time Indicator
  Dewpoint,                               ! Humidity Indicating Type
  ,                                       ! Humidity Indicating Day Schedule Name
  DefaultMultipliers,                     ! Dry-Bulb Temperature Range Modifier Type
  ,                                       ! Dry-Bulb Temperature Range Modifier Schedule Name
  ASHRAETau,                              ! Solar Model Indicator
  ,                                       ! Beam Solar Day Schedule Name
  ,                                       ! Diffuse Solar Day Schedule Name
  0.389,                                  ! ASHRAE Taub {dimensionless}
  2.278;                                  ! ASHRAE Taud {dimensionless}

OS:ComponentData,
  {cebf2b06-5427-42e7-93ce-bab58f04dc96}, ! Handle
  Component Data 1,                       ! Name
  {281083be-c5cd-4557-92b4-baac7dcce2f0}, ! UUID
  {4341f7bc-9306-4bd6-9608-35bb7692c9c8}, ! Version UUID
  1366308238,                             ! Creation Timestamp
  1366308238,                             ! Version Timestamp
  {54b4dfcf-de40-4dc7-8acc-473546b22d64}; ! Name of Object 1

