
OS:Version,
  {0d20323d-d123-4597-8db0-a3bd73bc46d1}, ! Handle
  0.9.3;                                  ! Version Identifier

OS:SizingPeriod:DesignDay,
  {9331e5d7-e38c-402c-aed5-d95ec95a35b4}, ! Handle
  Kaneohe Bay Mcas Ann Clg 2% Condns WB=>MDB, ! Name
  27.4,                                   ! Maximum Dry-Bulb Temperature {C}
  4,                                      ! Daily Dry-Bulb Temperature Range {deltaC}
  24.3,                                   ! Humidity Indicating Conditions at Maximum Dry-Bulb {BasedOnField A3}
  101289,                                 ! Barometric Pressure {Pa}
  4.4,                                    ! Wind Speed {m/s}
  70,                                     ! Wind Direction {deg}
  0,                                      ! Sky Clearness
  0,                                      ! Rain Indicator
  0,                                      ! Snow Indicator
  21,                                     ! Day of Month
  9,                                      ! Month
  SummerDesignDay,                        ! Day Type
  0,                                      ! Daylight Saving Time Indicator
  Wetbulb,                                ! Humidity Indicating Type
  ,                                       ! Humidity Indicating Day Schedule Name
  DefaultMultipliers,                     ! Dry-Bulb Temperature Range Modifier Type
  ,                                       ! Dry-Bulb Temperature Range Modifier Schedule Name
  ASHRAETau,                              ! Solar Model Indicator
  ,                                       ! Beam Solar Day Schedule Name
  ,                                       ! Diffuse Solar Day Schedule Name
  0.371,                                  ! ASHRAE Taub {dimensionless}
  2.619;                                  ! ASHRAE Taud {dimensionless}

OS:ComponentData,
  {50120908-96d5-48d3-b246-065809924ea1}, ! Handle
  Component Data 1,                       ! Name
  {42f3b584-2442-42ed-919d-ac08e06bbafc}, ! UUID
  {83aa7bb9-2624-4d9d-b52c-b691a200352c}, ! Version UUID
  1366307104,                             ! Creation Timestamp
  1366307104,                             ! Version Timestamp
  {9331e5d7-e38c-402c-aed5-d95ec95a35b4}; ! Name of Object 1

