
OS:Version,
  {d5e5aec5-98c9-461f-b7a4-d2ebf1e4fe43}, ! Handle
  0.9.3;                                  ! Version Identifier

OS:SizingPeriod:DesignDay,
  {68da9d41-2bac-4ebf-9a63-f4db887d85e0}, ! Handle
  Cheyenne/Warren AFB Ann Clg 2% Condns DB=>MWB, ! Name
  28.6,                                   ! Maximum Dry-Bulb Temperature {C}
  14.6,                                   ! Daily Dry-Bulb Temperature Range {deltaC}
  14.1,                                   ! Humidity Indicating Conditions at Maximum Dry-Bulb {BasedOnField A3}
  80767,                                  ! Barometric Pressure {Pa}
  5.3,                                    ! Wind Speed {m/s}
  170,                                    ! Wind Direction {deg}
  0,                                      ! Sky Clearness
  0,                                      ! Rain Indicator
  0,                                      ! Snow Indicator
  21,                                     ! Day of Month
  7,                                      ! Month
  SummerDesignDay,                        ! Day Type
  0,                                      ! Daylight Saving Time Indicator
  Wetbulb,                                ! Humidity Indicating Type
  ,                                       ! Humidity Indicating Day Schedule Name
  DefaultMultipliers,                     ! Dry-Bulb Temperature Range Modifier Type
  ,                                       ! Dry-Bulb Temperature Range Modifier Schedule Name
  ASHRAETau,                              ! Solar Model Indicator
  ,                                       ! Beam Solar Day Schedule Name
  ,                                       ! Diffuse Solar Day Schedule Name
  0.404,                                  ! ASHRAE Taub {dimensionless}
  2.038;                                  ! ASHRAE Taud {dimensionless}

OS:ComponentData,
  {9cf045b1-2c38-4cdb-b4d6-7ea82f194729}, ! Handle
  Component Data 1,                       ! Name
  {d4dcf7b0-d5c7-4f0c-87f1-559be72af431}, ! UUID
  {3d753fc4-5037-454d-ba72-312ec6869d9a}, ! Version UUID
  1366311706,                             ! Creation Timestamp
  1366311706,                             ! Version Timestamp
  {68da9d41-2bac-4ebf-9a63-f4db887d85e0}; ! Name of Object 1

