
OS:Version,
  {226389ad-9d88-47a1-81d5-f67148b10742}, ! Handle
  0.9.3;                                  ! Version Identifier

OS:SizingPeriod:DesignDay,
  {e7114560-7ea4-420f-a38c-02cc64b07b93}, ! Handle
  Craig Moffat Ann Htg 99.6% Condns DB,   ! Name
  -26.4,                                  ! Maximum Dry-Bulb Temperature {C}
  0,                                      ! Daily Dry-Bulb Temperature Range {deltaC}
  -26.4,                                  ! Humidity Indicating Conditions at Maximum Dry-Bulb {BasedOnField A3}
  80338,                                  ! Barometric Pressure {Pa}
  1.1,                                    ! Wind Speed {m/s}
  230,                                    ! Wind Direction {deg}
  0,                                      ! Sky Clearness
  0,                                      ! Rain Indicator
  0,                                      ! Snow Indicator
  21,                                     ! Day of Month
  1,                                      ! Month
  WinterDesignDay,                        ! Day Type
  0,                                      ! Daylight Saving Time Indicator
  Wetbulb,                                ! Humidity Indicating Type
  ,                                       ! Humidity Indicating Day Schedule Name
  DefaultMultipliers,                     ! Dry-Bulb Temperature Range Modifier Type
  ,                                       ! Dry-Bulb Temperature Range Modifier Schedule Name
  ASHRAEClearSky;                         ! Solar Model Indicator

OS:ComponentData,
  {5fc08636-154a-414c-859c-0de8288e5c99}, ! Handle
  Component Data 1,                       ! Name
  {a391f5d8-1250-4573-9816-861bac0eb2f4}, ! UUID
  {6cba6839-3abe-4836-8403-cd2e62090130}, ! Version UUID
  1366306670,                             ! Creation Timestamp
  1366306670,                             ! Version Timestamp
  {e7114560-7ea4-420f-a38c-02cc64b07b93}; ! Name of Object 1

