
OS:Version,
  {2eca9935-ad33-44c0-9f2a-dc1c00b45c3d}, ! Handle
  0.9.3;                                  ! Version Identifier

OS:SizingPeriod:DesignDay,
  {d50ec9c0-5232-4e77-9779-664a805138f2}, ! Handle
  Fargo Ann Clg 1% Condns DP=>MDB,        ! Name
  26.7,                                   ! Maximum Dry-Bulb Temperature {C}
  11.8,                                   ! Daily Dry-Bulb Temperature Range {deltaC}
  21.1,                                   ! Humidity Indicating Conditions at Maximum Dry-Bulb {BasedOnField A3}
  98076,                                  ! Barometric Pressure {Pa}
  6.5,                                    ! Wind Speed {m/s}
  170,                                    ! Wind Direction {deg}
  0,                                      ! Sky Clearness
  0,                                      ! Rain Indicator
  0,                                      ! Snow Indicator
  21,                                     ! Day of Month
  7,                                      ! Month
  SummerDesignDay,                        ! Day Type
  0,                                      ! Daylight Saving Time Indicator
  Dewpoint,                               ! Humidity Indicating Type
  ,                                       ! Humidity Indicating Day Schedule Name
  DefaultMultipliers,                     ! Dry-Bulb Temperature Range Modifier Type
  ,                                       ! Dry-Bulb Temperature Range Modifier Schedule Name
  ASHRAETau,                              ! Solar Model Indicator
  ,                                       ! Beam Solar Day Schedule Name
  ,                                       ! Diffuse Solar Day Schedule Name
  0.396,                                  ! ASHRAE Taub {dimensionless}
  2.253;                                  ! ASHRAE Taud {dimensionless}

OS:ComponentData,
  {37411dc7-6765-48d4-833c-7313ce972158}, ! Handle
  Component Data 1,                       ! Name
  {9cd00850-3d8d-4ecb-8779-b9d4111726c7}, ! UUID
  {ed7ef5fb-cad0-4d8c-93c1-47ea443bd3af}, ! Version UUID
  1366309026,                             ! Creation Timestamp
  1366309026,                             ! Version Timestamp
  {d50ec9c0-5232-4e77-9779-664a805138f2}; ! Name of Object 1

