
OS:Version,
  {250de7bb-38a1-4744-904b-f89fc6e4affc}, ! Handle
  0.9.3;                                  ! Version Identifier

OS:SizingPeriod:DesignDay,
  {0985c3be-2855-450e-8b2f-9404bcfaf939}, ! Handle
  Glasgow Intl Arpt Ann Htg Wind 99.6% Condns WS=>MCDB, ! Name
  -8.3,                                   ! Maximum Dry-Bulb Temperature {C}
  0,                                      ! Daily Dry-Bulb Temperature Range {deltaC}
  -8.3,                                   ! Humidity Indicating Conditions at Maximum Dry-Bulb {BasedOnField A3}
  93205,                                  ! Barometric Pressure {Pa}
  13.5,                                   ! Wind Speed {m/s}
  340,                                    ! Wind Direction {deg}
  0,                                      ! Sky Clearness
  0,                                      ! Rain Indicator
  0,                                      ! Snow Indicator
  21,                                     ! Day of Month
  1,                                      ! Month
  WinterDesignDay,                        ! Day Type
  0,                                      ! Daylight Saving Time Indicator
  Wetbulb,                                ! Humidity Indicating Type
  ,                                       ! Humidity Indicating Day Schedule Name
  DefaultMultipliers,                     ! Dry-Bulb Temperature Range Modifier Type
  ,                                       ! Dry-Bulb Temperature Range Modifier Schedule Name
  ASHRAEClearSky;                         ! Solar Model Indicator

OS:ComponentData,
  {384edc9a-8764-4060-9ba0-8832de552b59}, ! Handle
  Component Data 1,                       ! Name
  {9d579363-e22d-41d4-9b47-1e0b4186a0f2}, ! UUID
  {65e15820-4282-4d3d-8e71-20485882a0bd}, ! Version UUID
  1366308762,                             ! Creation Timestamp
  1366308762,                             ! Version Timestamp
  {0985c3be-2855-450e-8b2f-9404bcfaf939}; ! Name of Object 1

