
OS:Version,
  {2fe473e4-3eeb-442a-a4af-c6b7ac84fe76}, ! Handle
  0.9.3;                                  ! Version Identifier

OS:SizingPeriod:DesignDay,
  {a5e688a6-234c-48f5-8494-09f8c4b5d76d}, ! Handle
  Gulkana Ann Htg 99% Condns DB,          ! Name
  -35.8,                                  ! Maximum Dry-Bulb Temperature {C}
  0,                                      ! Daily Dry-Bulb Temperature Range {deltaC}
  -35.8,                                  ! Humidity Indicating Conditions at Maximum Dry-Bulb {BasedOnField A3}
  95679,                                  ! Barometric Pressure {Pa}
  0.6,                                    ! Wind Speed {m/s}
  330,                                    ! Wind Direction {deg}
  0,                                      ! Sky Clearness
  0,                                      ! Rain Indicator
  0,                                      ! Snow Indicator
  21,                                     ! Day of Month
  1,                                      ! Month
  WinterDesignDay,                        ! Day Type
  0,                                      ! Daylight Saving Time Indicator
  Wetbulb,                                ! Humidity Indicating Type
  ,                                       ! Humidity Indicating Day Schedule Name
  DefaultMultipliers,                     ! Dry-Bulb Temperature Range Modifier Type
  ,                                       ! Dry-Bulb Temperature Range Modifier Schedule Name
  ASHRAEClearSky;                         ! Solar Model Indicator

OS:ComponentData,
  {c94bba3e-8b3e-4521-83fe-2514b7f9477a}, ! Handle
  Component Data 1,                       ! Name
  {9337dbc4-4ca9-4d89-aab1-fe4f119e998f}, ! UUID
  {147b4b4f-192b-4f40-a030-c8c2008f2a41}, ! Version UUID
  1366305281,                             ! Creation Timestamp
  1366305281,                             ! Version Timestamp
  {a5e688a6-234c-48f5-8494-09f8c4b5d76d}; ! Name of Object 1

