
OS:Version,
  {b58b0080-9116-459c-ada9-31c422cf74d2}, ! Handle
  0.9.3;                                  ! Version Identifier

OS:SizingPeriod:DesignDay,
  {ee25e976-6ec5-4685-836b-568be19e2609}, ! Handle
  Coeur D Alene Awos Ann Clg 2% Condns DB=>MWB, ! Name
  29,                                     ! Maximum Dry-Bulb Temperature {C}
  15.6,                                   ! Daily Dry-Bulb Temperature Range {deltaC}
  16,                                     ! Humidity Indicating Conditions at Maximum Dry-Bulb {BasedOnField A3}
  93115,                                  ! Barometric Pressure {Pa}
  2.8,                                    ! Wind Speed {m/s}
  250,                                    ! Wind Direction {deg}
  0,                                      ! Sky Clearness
  0,                                      ! Rain Indicator
  0,                                      ! Snow Indicator
  21,                                     ! Day of Month
  7,                                      ! Month
  SummerDesignDay,                        ! Day Type
  0,                                      ! Daylight Saving Time Indicator
  Wetbulb,                                ! Humidity Indicating Type
  ,                                       ! Humidity Indicating Day Schedule Name
  DefaultMultipliers,                     ! Dry-Bulb Temperature Range Modifier Type
  ,                                       ! Dry-Bulb Temperature Range Modifier Schedule Name
  ASHRAETau,                              ! Solar Model Indicator
  ,                                       ! Beam Solar Day Schedule Name
  ,                                       ! Diffuse Solar Day Schedule Name
  0.345,                                  ! ASHRAE Taub {dimensionless}
  2.481;                                  ! ASHRAE Taud {dimensionless}

OS:ComponentData,
  {33b672f0-d40b-4f5e-9c21-5e226a05bed4}, ! Handle
  Component Data 1,                       ! Name
  {0eb38e79-d8ae-4862-8efc-1abdce89fff6}, ! UUID
  {b60909be-0ac0-457c-8154-682866a62b4f}, ! Version UUID
  1366307280,                             ! Creation Timestamp
  1366307280,                             ! Version Timestamp
  {ee25e976-6ec5-4685-836b-568be19e2609}; ! Name of Object 1

