
OS:Version,
  {700e5899-9ba9-4cc7-9dd0-350a71cb8cc4}, ! Handle
  0.9.3;                                  ! Version Identifier

OS:SizingPeriod:DesignDay,
  {52f8b628-82b0-423b-bc44-47e92d96476e}, ! Handle
  Hill City Municipal Ap Ann Clg .4% Condns WB=>MDB, ! Name
  32.5,                                   ! Maximum Dry-Bulb Temperature {C}
  14.5,                                   ! Daily Dry-Bulb Temperature Range {deltaC}
  24.4,                                   ! Humidity Indicating Conditions at Maximum Dry-Bulb {BasedOnField A3}
  93565,                                  ! Barometric Pressure {Pa}
  6.5,                                    ! Wind Speed {m/s}
  180,                                    ! Wind Direction {deg}
  0,                                      ! Sky Clearness
  0,                                      ! Rain Indicator
  0,                                      ! Snow Indicator
  21,                                     ! Day of Month
  7,                                      ! Month
  SummerDesignDay,                        ! Day Type
  0,                                      ! Daylight Saving Time Indicator
  Wetbulb,                                ! Humidity Indicating Type
  ,                                       ! Humidity Indicating Day Schedule Name
  DefaultMultipliers,                     ! Dry-Bulb Temperature Range Modifier Type
  ,                                       ! Dry-Bulb Temperature Range Modifier Schedule Name
  ASHRAETau,                              ! Solar Model Indicator
  ,                                       ! Beam Solar Day Schedule Name
  ,                                       ! Diffuse Solar Day Schedule Name
  0.439,                                  ! ASHRAE Taub {dimensionless}
  2.059;                                  ! ASHRAE Taud {dimensionless}

OS:ComponentData,
  {8cb8edfd-fc1b-499b-85e1-73c74585ab56}, ! Handle
  Component Data 1,                       ! Name
  {b1a0b6b5-c572-46f5-aeaa-98bf94941502}, ! UUID
  {ae78ab4c-76d6-4a5b-80f5-2803b2c6ce97}, ! Version UUID
  1366307549,                             ! Creation Timestamp
  1366307549,                             ! Version Timestamp
  {52f8b628-82b0-423b-bc44-47e92d96476e}; ! Name of Object 1

