
OS:Version,
  {041a6b08-33b7-4119-a810-770811ff1538}, ! Handle
  0.9.3;                                  ! Version Identifier

OS:SizingPeriod:DesignDay,
  {c92c8c75-6cda-42c0-86be-0c289968ce5d}, ! Handle
  Denver Centennial  Golden   N Ann Hum_n 99% Condns DP=>MCDB, ! Name
  -7.5,                                   ! Maximum Dry-Bulb Temperature {C}
  0,                                      ! Daily Dry-Bulb Temperature Range {deltaC}
  -18.8,                                  ! Humidity Indicating Conditions at Maximum Dry-Bulb {BasedOnField A3}
  81198,                                  ! Barometric Pressure {Pa}
  3,                                      ! Wind Speed {m/s}
  340,                                    ! Wind Direction {deg}
  0,                                      ! Sky Clearness
  0,                                      ! Rain Indicator
  0,                                      ! Snow Indicator
  21,                                     ! Day of Month
  12,                                     ! Month
  WinterDesignDay,                        ! Day Type
  0,                                      ! Daylight Saving Time Indicator
  Dewpoint,                               ! Humidity Indicating Type
  ,                                       ! Humidity Indicating Day Schedule Name
  DefaultMultipliers,                     ! Dry-Bulb Temperature Range Modifier Type
  ,                                       ! Dry-Bulb Temperature Range Modifier Schedule Name
  ASHRAEClearSky;                         ! Solar Model Indicator

OS:ComponentData,
  {655f78c5-3363-4289-884c-8b37a6f86d34}, ! Handle
  Component Data 1,                       ! Name
  {c08d186f-dd25-43b8-80b8-4011f0052c86}, ! UUID
  {8370c65f-9bde-426a-8323-cfbb0f6527a6}, ! Version UUID
  1366306694,                             ! Creation Timestamp
  1366306694,                             ! Version Timestamp
  {c92c8c75-6cda-42c0-86be-0c289968ce5d}; ! Name of Object 1

