
OS:Version,
  {e7cd8d88-3a47-44d2-a598-905e02c37fbd}, ! Handle
  0.9.3;                                  ! Version Identifier

OS:SizingPeriod:DesignDay,
  {e67f7a4a-0c80-4cf4-bf8f-d94ded92f80b}, ! Handle
  Key West Nas Ann Htg 99.6% Condns DB,   ! Name
  12.7,                                   ! Maximum Dry-Bulb Temperature {C}
  0,                                      ! Daily Dry-Bulb Temperature Range {deltaC}
  12.7,                                   ! Humidity Indicating Conditions at Maximum Dry-Bulb {BasedOnField A3}
  101241,                                 ! Barometric Pressure {Pa}
  4.5,                                    ! Wind Speed {m/s}
  20,                                     ! Wind Direction {deg}
  0,                                      ! Sky Clearness
  0,                                      ! Rain Indicator
  0,                                      ! Snow Indicator
  21,                                     ! Day of Month
  1,                                      ! Month
  WinterDesignDay,                        ! Day Type
  0,                                      ! Daylight Saving Time Indicator
  Wetbulb,                                ! Humidity Indicating Type
  ,                                       ! Humidity Indicating Day Schedule Name
  DefaultMultipliers,                     ! Dry-Bulb Temperature Range Modifier Type
  ,                                       ! Dry-Bulb Temperature Range Modifier Schedule Name
  ASHRAEClearSky;                         ! Solar Model Indicator

OS:ComponentData,
  {ecf0dd95-58e4-416d-991c-de341d8d5e17}, ! Handle
  Component Data 1,                       ! Name
  {7d542611-402d-47e4-8e43-9c2e1d09c994}, ! UUID
  {b1f5552e-c954-4460-8e0a-7cfe91169a0e}, ! Version UUID
  1366306839,                             ! Creation Timestamp
  1366306839,                             ! Version Timestamp
  {e67f7a4a-0c80-4cf4-bf8f-d94ded92f80b}; ! Name of Object 1

