
OS:Version,
  {e7a8a3a5-a4ea-42d5-9b3d-2a8c84ffad11}, ! Handle
  0.9.3;                                  ! Version Identifier

OS:SizingPeriod:DesignDay,
  {e465ce8e-d993-4a60-9f18-109f06bec91b}, ! Handle
  FRESNO Ann Htg 99% Condns DB,           ! Name
  0.9,                                    ! Maximum Dry-Bulb Temperature {C}
  0,                                      ! Daily Dry-Bulb Temperature Range {deltaC}
  0.9,                                    ! Humidity Indicating Conditions at Maximum Dry-Bulb {BasedOnField A3}
  100129,                                 ! Barometric Pressure {Pa}
  1.2,                                    ! Wind Speed {m/s}
  80,                                     ! Wind Direction {deg}
  0,                                      ! Sky Clearness
  0,                                      ! Rain Indicator
  0,                                      ! Snow Indicator
  21,                                     ! Day of Month
  12,                                     ! Month
  WinterDesignDay,                        ! Day Type
  0,                                      ! Daylight Saving Time Indicator
  Wetbulb,                                ! Humidity Indicating Type
  ,                                       ! Humidity Indicating Day Schedule Name
  DefaultMultipliers,                     ! Dry-Bulb Temperature Range Modifier Type
  ,                                       ! Dry-Bulb Temperature Range Modifier Schedule Name
  ASHRAEClearSky;                         ! Solar Model Indicator

OS:ComponentData,
  {7ac150cf-1d47-4643-8acb-28c60dfc7192}, ! Handle
  Component Data 1,                       ! Name
  {5f7929b2-e4f1-40ab-ab2f-ad6e70b7773d}, ! UUID
  {578b467d-dec7-4918-baef-a0dc3f118797}, ! Version UUID
  1366306432,                             ! Creation Timestamp
  1366306432,                             ! Version Timestamp
  {e465ce8e-d993-4a60-9f18-109f06bec91b}; ! Name of Object 1

