
OS:Version,
  {edf577cd-0a88-4609-9feb-021c7f439c23}, ! Handle
  0.9.3;                                  ! Version Identifier

OS:SizingPeriod:DesignDay,
  {90e3d42e-6f74-4d73-ad84-fc64e405f60c}, ! Handle
  Hickory Regional Ap Ann Clg 2% Condns Enth=>MDB, ! Name
  28.6,                                   ! Maximum Dry-Bulb Temperature {C}
  10.3,                                   ! Daily Dry-Bulb Temperature Range {deltaC}
  71300,                                  ! Humidity Indicating Conditions at Maximum Dry-Bulb {BasedOnField A3}
  97214,                                  ! Barometric Pressure {Pa}
  3.4,                                    ! Wind Speed {m/s}
  280,                                    ! Wind Direction {deg}
  0,                                      ! Sky Clearness
  0,                                      ! Rain Indicator
  0,                                      ! Snow Indicator
  21,                                     ! Day of Month
  7,                                      ! Month
  SummerDesignDay,                        ! Day Type
  0,                                      ! Daylight Saving Time Indicator
  Enthalpy,                               ! Humidity Indicating Type
  ,                                       ! Humidity Indicating Day Schedule Name
  DefaultMultipliers,                     ! Dry-Bulb Temperature Range Modifier Type
  ,                                       ! Dry-Bulb Temperature Range Modifier Schedule Name
  ASHRAETau,                              ! Solar Model Indicator
  ,                                       ! Beam Solar Day Schedule Name
  ,                                       ! Diffuse Solar Day Schedule Name
  0.542,                                  ! ASHRAE Taub {dimensionless}
  1.787;                                  ! ASHRAE Taud {dimensionless}

OS:ComponentData,
  {5efb9ed4-984e-4092-8161-ba0da0845c2b}, ! Handle
  Component Data 1,                       ! Name
  {df85c43b-961c-416b-9f9a-1f49addf1029}, ! UUID
  {ba264c1d-9511-438b-b9b8-6d9d7a5f509a}, ! Version UUID
  1366308942,                             ! Creation Timestamp
  1366308942,                             ! Version Timestamp
  {90e3d42e-6f74-4d73-ad84-fc64e405f60c}; ! Name of Object 1

