
OS:Version,
  {c87d8684-e088-4601-8093-dc6bf325cafc}, ! Handle
  0.9.3;                                  ! Version Identifier

OS:SizingPeriod:DesignDay,
  {3aae3733-fe22-4131-8e7a-18d9f23bdc0b}, ! Handle
  LEWISTOWN Ann Htg 99.6% Condns DB,      ! Name
  -27.1,                                  ! Maximum Dry-Bulb Temperature {C}
  0,                                      ! Daily Dry-Bulb Temperature Range {deltaC}
  -27.1,                                  ! Humidity Indicating Conditions at Maximum Dry-Bulb {BasedOnField A3}
  87034,                                  ! Barometric Pressure {Pa}
  3,                                      ! Wind Speed {m/s}
  120,                                    ! Wind Direction {deg}
  0,                                      ! Sky Clearness
  0,                                      ! Rain Indicator
  0,                                      ! Snow Indicator
  21,                                     ! Day of Month
  12,                                     ! Month
  WinterDesignDay,                        ! Day Type
  0,                                      ! Daylight Saving Time Indicator
  Wetbulb,                                ! Humidity Indicating Type
  ,                                       ! Humidity Indicating Day Schedule Name
  DefaultMultipliers,                     ! Dry-Bulb Temperature Range Modifier Type
  ,                                       ! Dry-Bulb Temperature Range Modifier Schedule Name
  ASHRAEClearSky;                         ! Solar Model Indicator

OS:ComponentData,
  {762edea9-838f-48bc-9730-b25a1552f124}, ! Handle
  Component Data 1,                       ! Name
  {a45bf495-d7f3-4b82-a808-0e4ee17e4e92}, ! UUID
  {f0bde7b1-ae0c-438f-b532-892a9cd0c839}, ! Version UUID
  1366308811,                             ! Creation Timestamp
  1366308811,                             ! Version Timestamp
  {3aae3733-fe22-4131-8e7a-18d9f23bdc0b}; ! Name of Object 1

