
OS:Version,
  {f06954e2-7d29-494e-a860-9835f5abcb9e}, ! Handle
  0.9.3;                                  ! Version Identifier

OS:SizingPeriod:DesignDay,
  {577591be-f5cb-4663-8568-98037f7cf5f6}, ! Handle
  FLINT Ann Htg Wind 99% Condns WS=>MCDB, ! Name
  -4.6,                                   ! Maximum Dry-Bulb Temperature {C}
  0,                                      ! Daily Dry-Bulb Temperature Range {deltaC}
  -4.6,                                   ! Humidity Indicating Conditions at Maximum Dry-Bulb {BasedOnField A3}
  98557,                                  ! Barometric Pressure {Pa}
  11.4,                                   ! Wind Speed {m/s}
  220,                                    ! Wind Direction {deg}
  0,                                      ! Sky Clearness
  0,                                      ! Rain Indicator
  0,                                      ! Snow Indicator
  21,                                     ! Day of Month
  1,                                      ! Month
  WinterDesignDay,                        ! Day Type
  0,                                      ! Daylight Saving Time Indicator
  Wetbulb,                                ! Humidity Indicating Type
  ,                                       ! Humidity Indicating Day Schedule Name
  DefaultMultipliers,                     ! Dry-Bulb Temperature Range Modifier Type
  ,                                       ! Dry-Bulb Temperature Range Modifier Schedule Name
  ASHRAEClearSky;                         ! Solar Model Indicator

OS:ComponentData,
  {218c458c-3765-471d-b9db-e22698056635}, ! Handle
  Component Data 1,                       ! Name
  {336a8bed-c02b-410b-86b5-5d3a08b2505b}, ! UUID
  {cc945dce-6f7d-4c6d-9498-c0677dfc6d80}, ! Version UUID
  1366308002,                             ! Creation Timestamp
  1366308002,                             ! Version Timestamp
  {577591be-f5cb-4663-8568-98037f7cf5f6}; ! Name of Object 1

