
OS:Version,
  {70428497-1aea-466a-b9da-a3d472f26050}, ! Handle
  0.9.3;                                  ! Version Identifier

OS:SizingPeriod:DesignDay,
  {4c4ee7f7-c3cd-4c5f-9556-8e06d4284ce5}, ! Handle
  Columbia Ann Clg .4% Condns DB=>MWB,    ! Name
  36.1,                                   ! Maximum Dry-Bulb Temperature {C}
  11.1,                                   ! Daily Dry-Bulb Temperature Range {deltaC}
  24.1,                                   ! Humidity Indicating Conditions at Maximum Dry-Bulb {BasedOnField A3}
  100499,                                 ! Barometric Pressure {Pa}
  3.9,                                    ! Wind Speed {m/s}
  240,                                    ! Wind Direction {deg}
  0,                                      ! Sky Clearness
  0,                                      ! Rain Indicator
  0,                                      ! Snow Indicator
  21,                                     ! Day of Month
  7,                                      ! Month
  SummerDesignDay,                        ! Day Type
  0,                                      ! Daylight Saving Time Indicator
  Wetbulb,                                ! Humidity Indicating Type
  ,                                       ! Humidity Indicating Day Schedule Name
  DefaultMultipliers,                     ! Dry-Bulb Temperature Range Modifier Type
  ,                                       ! Dry-Bulb Temperature Range Modifier Schedule Name
  ASHRAETau,                              ! Solar Model Indicator
  ,                                       ! Beam Solar Day Schedule Name
  ,                                       ! Diffuse Solar Day Schedule Name
  0.566,                                  ! ASHRAE Taub {dimensionless}
  1.764;                                  ! ASHRAE Taud {dimensionless}

OS:ComponentData,
  {42919950-5258-4941-8297-a092d8db2df3}, ! Handle
  Component Data 1,                       ! Name
  {9726a98f-fad6-47e9-8687-65cf40c864f8}, ! UUID
  {0dc7203b-68b4-4eaf-81be-035b29586d3d}, ! Version UUID
  1366310344,                             ! Creation Timestamp
  1366310344,                             ! Version Timestamp
  {4c4ee7f7-c3cd-4c5f-9556-8e06d4284ce5}; ! Name of Object 1

