
OS:Version,
  {26c3ecdc-407b-4b2f-950a-352dd7bcc36d}, ! Handle
  0.9.3;                                  ! Version Identifier

OS:SizingPeriod:DesignDay,
  {53e86492-5264-4c9f-8d1c-1f4e3a0548c9}, ! Handle
  Greensboro Piedmont Triad Int Ann Clg 2% Condns DP=>MDB, ! Name
  26.1,                                   ! Maximum Dry-Bulb Temperature {C}
  9.9,                                    ! Daily Dry-Bulb Temperature Range {deltaC}
  22.2,                                   ! Humidity Indicating Conditions at Maximum Dry-Bulb {BasedOnField A3}
  98088,                                  ! Barometric Pressure {Pa}
  3.4,                                    ! Wind Speed {m/s}
  230,                                    ! Wind Direction {deg}
  0,                                      ! Sky Clearness
  0,                                      ! Rain Indicator
  0,                                      ! Snow Indicator
  21,                                     ! Day of Month
  7,                                      ! Month
  SummerDesignDay,                        ! Day Type
  0,                                      ! Daylight Saving Time Indicator
  Dewpoint,                               ! Humidity Indicating Type
  ,                                       ! Humidity Indicating Day Schedule Name
  DefaultMultipliers,                     ! Dry-Bulb Temperature Range Modifier Type
  ,                                       ! Dry-Bulb Temperature Range Modifier Schedule Name
  ASHRAETau,                              ! Solar Model Indicator
  ,                                       ! Beam Solar Day Schedule Name
  ,                                       ! Diffuse Solar Day Schedule Name
  0.557,                                  ! ASHRAE Taub {dimensionless}
  1.757;                                  ! ASHRAE Taud {dimensionless}

OS:ComponentData,
  {9131d883-ac57-40dd-b71b-880022b6710d}, ! Handle
  Component Data 1,                       ! Name
  {a40ce7b5-1f66-4f12-b079-bba51b40989d}, ! UUID
  {73c20320-16bd-4053-aa15-2c969fefe7a7}, ! Version UUID
  1366308933,                             ! Creation Timestamp
  1366308933,                             ! Version Timestamp
  {53e86492-5264-4c9f-8d1c-1f4e3a0548c9}; ! Name of Object 1

