
OS:Version,
  {8e17e32c-9c15-427c-809d-bcdaba322108}, ! Handle
  0.9.3;                                  ! Version Identifier

OS:SizingPeriod:DesignDay,
  {ecca2ac8-cad8-4761-b6b8-956df1a5574c}, ! Handle
  Covington/Cincinnati O Ann Clg .4% Condns DB=>MWB, ! Name
  33,                                     ! Maximum Dry-Bulb Temperature {C}
  10.3,                                   ! Daily Dry-Bulb Temperature Range {deltaC}
  23.6,                                   ! Humidity Indicating Conditions at Maximum Dry-Bulb {BasedOnField A3}
  98158,                                  ! Barometric Pressure {Pa}
  4.3,                                    ! Wind Speed {m/s}
  230,                                    ! Wind Direction {deg}
  0,                                      ! Sky Clearness
  0,                                      ! Rain Indicator
  0,                                      ! Snow Indicator
  21,                                     ! Day of Month
  7,                                      ! Month
  SummerDesignDay,                        ! Day Type
  0,                                      ! Daylight Saving Time Indicator
  Wetbulb,                                ! Humidity Indicating Type
  ,                                       ! Humidity Indicating Day Schedule Name
  DefaultMultipliers,                     ! Dry-Bulb Temperature Range Modifier Type
  ,                                       ! Dry-Bulb Temperature Range Modifier Schedule Name
  ASHRAETau,                              ! Solar Model Indicator
  ,                                       ! Beam Solar Day Schedule Name
  ,                                       ! Diffuse Solar Day Schedule Name
  0.493,                                  ! ASHRAE Taub {dimensionless}
  1.911;                                  ! ASHRAE Taud {dimensionless}

OS:ComponentData,
  {e1e7e2ec-40d6-44d3-b3d0-b9f93b29d276}, ! Handle
  Component Data 1,                       ! Name
  {9b2f772a-75d2-48a1-b344-f4123123f9a9}, ! UUID
  {dcff6b41-c579-44a4-aee2-3e2f4649ca03}, ! Version UUID
  1366307616,                             ! Creation Timestamp
  1366307616,                             ! Version Timestamp
  {ecca2ac8-cad8-4761-b6b8-956df1a5574c}; ! Name of Object 1

