
OS:Version,
  {a723d5c4-df48-4468-b15d-943dfc85ddc0}, ! Handle
  0.9.3;                                  ! Version Identifier

OS:SizingPeriod:DesignDay,
  {03279fa3-0b07-4088-a77c-0bbf4ebf9a66}, ! Handle
  Durango La Plata Co Ann Clg .4% Condns DP=>MDB, ! Name
  17.1,                                   ! Maximum Dry-Bulb Temperature {C}
  17.6,                                   ! Daily Dry-Bulb Temperature Range {deltaC}
  14.1,                                   ! Humidity Indicating Conditions at Maximum Dry-Bulb {BasedOnField A3}
  79121,                                  ! Barometric Pressure {Pa}
  4.9,                                    ! Wind Speed {m/s}
  250,                                    ! Wind Direction {deg}
  0,                                      ! Sky Clearness
  0,                                      ! Rain Indicator
  0,                                      ! Snow Indicator
  21,                                     ! Day of Month
  7,                                      ! Month
  SummerDesignDay,                        ! Day Type
  0,                                      ! Daylight Saving Time Indicator
  Dewpoint,                               ! Humidity Indicating Type
  ,                                       ! Humidity Indicating Day Schedule Name
  DefaultMultipliers,                     ! Dry-Bulb Temperature Range Modifier Type
  ,                                       ! Dry-Bulb Temperature Range Modifier Schedule Name
  ASHRAETau,                              ! Solar Model Indicator
  ,                                       ! Beam Solar Day Schedule Name
  ,                                       ! Diffuse Solar Day Schedule Name
  0.396,                                  ! ASHRAE Taub {dimensionless}
  2.134;                                  ! ASHRAE Taud {dimensionless}

OS:ComponentData,
  {4d63fb54-6e7c-412d-bd73-fbda6b705489}, ! Handle
  Component Data 1,                       ! Name
  {75ded989-feae-4d09-be15-5a4c1edf1b8a}, ! UUID
  {c1ea0d3f-44ec-4ef0-bac9-a492069cc163}, ! Version UUID
  1366306681,                             ! Creation Timestamp
  1366306681,                             ! Version Timestamp
  {03279fa3-0b07-4088-a77c-0bbf4ebf9a66}; ! Name of Object 1

