
OS:Version,
  {115de9ff-74c0-4baf-859a-68bc20594ad6}, ! Handle
  0.9.3;                                  ! Version Identifier

OS:SizingPeriod:DesignDay,
  {fc51687f-acc4-4714-a098-a2b81048de12}, ! Handle
  AUSTIN Ann Htg 99.6% Condns DB,         ! Name
  -3.8,                                   ! Maximum Dry-Bulb Temperature {C}
  0,                                      ! Daily Dry-Bulb Temperature Range {deltaC}
  -3.8,                                   ! Humidity Indicating Conditions at Maximum Dry-Bulb {BasedOnField A3}
  99075,                                  ! Barometric Pressure {Pa}
  3.2,                                    ! Wind Speed {m/s}
  10,                                     ! Wind Direction {deg}
  0,                                      ! Sky Clearness
  0,                                      ! Rain Indicator
  0,                                      ! Snow Indicator
  21,                                     ! Day of Month
  1,                                      ! Month
  WinterDesignDay,                        ! Day Type
  0,                                      ! Daylight Saving Time Indicator
  Wetbulb,                                ! Humidity Indicating Type
  ,                                       ! Humidity Indicating Day Schedule Name
  DefaultMultipliers,                     ! Dry-Bulb Temperature Range Modifier Type
  ,                                       ! Dry-Bulb Temperature Range Modifier Schedule Name
  ASHRAEClearSky;                         ! Solar Model Indicator

OS:ComponentData,
  {0088b438-ddbd-4c4a-9db8-3af205c08b51}, ! Handle
  Component Data 1,                       ! Name
  {eb39e499-2c4c-43fc-b4d9-9bbfe99d5bdd}, ! UUID
  {50ecdf73-cd0b-4041-b272-2759927fa855}, ! Version UUID
  1366310589,                             ! Creation Timestamp
  1366310589,                             ! Version Timestamp
  {fc51687f-acc4-4714-a098-a2b81048de12}; ! Name of Object 1

