
OS:Version,
  {0987293d-8084-462e-adc1-aeb40cecd96f}, ! Handle
  0.9.3;                                  ! Version Identifier

OS:SizingPeriod:DesignDay,
  {627a9afa-0d62-4156-a315-141ae8d05b10}, ! Handle
  Bethel Airport Ann Htg Wind 99.6% Condns WS=>MCDB, ! Name
  -7.3,                                   ! Maximum Dry-Bulb Temperature {C}
  0,                                      ! Daily Dry-Bulb Temperature Range {deltaC}
  -7.3,                                   ! Humidity Indicating Conditions at Maximum Dry-Bulb {BasedOnField A3}
  100869,                                 ! Barometric Pressure {Pa}
  16.3,                                   ! Wind Speed {m/s}
  20,                                     ! Wind Direction {deg}
  0,                                      ! Sky Clearness
  0,                                      ! Rain Indicator
  0,                                      ! Snow Indicator
  21,                                     ! Day of Month
  1,                                      ! Month
  WinterDesignDay,                        ! Day Type
  0,                                      ! Daylight Saving Time Indicator
  Wetbulb,                                ! Humidity Indicating Type
  ,                                       ! Humidity Indicating Day Schedule Name
  DefaultMultipliers,                     ! Dry-Bulb Temperature Range Modifier Type
  ,                                       ! Dry-Bulb Temperature Range Modifier Schedule Name
  ASHRAEClearSky;                         ! Solar Model Indicator

OS:ComponentData,
  {85724834-4eb2-4d85-b237-d04fc6702f82}, ! Handle
  Component Data 1,                       ! Name
  {6883f647-cc4c-4767-b381-93a4e4fcd701}, ! UUID
  {a741ae9b-6664-4b77-b131-5ab315d6a1c4}, ! Version UUID
  1366304757,                             ! Creation Timestamp
  1366304757,                             ! Version Timestamp
  {627a9afa-0d62-4156-a315-141ae8d05b10}; ! Name of Object 1

