
OS:Version,
  {ab5f2768-e9bc-4109-afb4-fba15d0c6873}, ! Handle
  0.9.3;                                  ! Version Identifier

OS:SizingPeriod:DesignDay,
  {c426d8a4-9b3d-45d8-b87b-d564a2d3b94d}, ! Handle
  ANCHORAGE Ann Clg .4% Condns DB=>MWB,   ! Name
  21.9,                                   ! Maximum Dry-Bulb Temperature {C}
  6.6,                                    ! Daily Dry-Bulb Temperature Range {deltaC}
  14.9,                                   ! Humidity Indicating Conditions at Maximum Dry-Bulb {BasedOnField A3}
  100905,                                 ! Barometric Pressure {Pa}
  3.6,                                    ! Wind Speed {m/s}
  300,                                    ! Wind Direction {deg}
  0,                                      ! Sky Clearness
  0,                                      ! Rain Indicator
  0,                                      ! Snow Indicator
  21,                                     ! Day of Month
  7,                                      ! Month
  SummerDesignDay,                        ! Day Type
  0,                                      ! Daylight Saving Time Indicator
  Wetbulb,                                ! Humidity Indicating Type
  ,                                       ! Humidity Indicating Day Schedule Name
  DefaultMultipliers,                     ! Dry-Bulb Temperature Range Modifier Type
  ,                                       ! Dry-Bulb Temperature Range Modifier Schedule Name
  ASHRAETau,                              ! Solar Model Indicator
  ,                                       ! Beam Solar Day Schedule Name
  ,                                       ! Diffuse Solar Day Schedule Name
  0.387,                                  ! ASHRAE Taub {dimensionless}
  2.172;                                  ! ASHRAE Taud {dimensionless}

OS:ComponentData,
  {00ae0a81-01b1-4d4e-aa22-65a743b56f03}, ! Handle
  Component Data 1,                       ! Name
  {af640a1f-6df1-4198-b35d-f5a08130ae35}, ! UUID
  {76c0b16a-267f-414f-a108-c18ccefa8f38}, ! Version UUID
  1366304703,                             ! Creation Timestamp
  1366304703,                             ! Version Timestamp
  {c426d8a4-9b3d-45d8-b87b-d564a2d3b94d}; ! Name of Object 1

