
OS:Version,
  {c66eaa7d-fae7-4f4f-be5e-bfc7e17ce27a}, ! Handle
  0.9.3;                                  ! Version Identifier

OS:SizingPeriod:DesignDay,
  {7e8fa261-36dc-4c48-8b98-5945941187dd}, ! Handle
  Albuquerque Intl Arpt  Isis Ann Clg 2% Condns WB=>MDB, ! Name
  26.9,                                   ! Maximum Dry-Bulb Temperature {C}
  13.5,                                   ! Daily Dry-Bulb Temperature Range {deltaC}
  17.7,                                   ! Humidity Indicating Conditions at Maximum Dry-Bulb {BasedOnField A3}
  83328,                                  ! Barometric Pressure {Pa}
  4.4,                                    ! Wind Speed {m/s}
  220,                                    ! Wind Direction {deg}
  0,                                      ! Sky Clearness
  0,                                      ! Rain Indicator
  0,                                      ! Snow Indicator
  21,                                     ! Day of Month
  7,                                      ! Month
  SummerDesignDay,                        ! Day Type
  0,                                      ! Daylight Saving Time Indicator
  Wetbulb,                                ! Humidity Indicating Type
  ,                                       ! Humidity Indicating Day Schedule Name
  DefaultMultipliers,                     ! Dry-Bulb Temperature Range Modifier Type
  ,                                       ! Dry-Bulb Temperature Range Modifier Schedule Name
  ASHRAETau,                              ! Solar Model Indicator
  ,                                       ! Beam Solar Day Schedule Name
  ,                                       ! Diffuse Solar Day Schedule Name
  0.463,                                  ! ASHRAE Taub {dimensionless}
  1.887;                                  ! ASHRAE Taud {dimensionless}

OS:ComponentData,
  {33dfccc8-97a8-467c-bdca-9e892a5e9afc}, ! Handle
  Component Data 1,                       ! Name
  {c0c95f01-0cd2-4ede-8919-fbf87550b139}, ! UUID
  {8cde0a93-834f-4a28-bd81-d26e2b12778c}, ! Version UUID
  1366309370,                             ! Creation Timestamp
  1366309370,                             ! Version Timestamp
  {7e8fa261-36dc-4c48-8b98-5945941187dd}; ! Name of Object 1

