
OS:Version,
  {d7eb64a9-ab41-4093-8bc9-b44f622608fa}, ! Handle
  0.9.3;                                  ! Version Identifier

OS:SizingPeriod:DesignDay,
  {9ce4dc82-1ffd-4081-acdd-43fadfac795b}, ! Handle
  Lake Hood Seaplane Ann Clg .4% Condns DB=>MWB, ! Name
  23.6,                                   ! Maximum Dry-Bulb Temperature {C}
  6.8,                                    ! Daily Dry-Bulb Temperature Range {deltaC}
  15.4,                                   ! Humidity Indicating Conditions at Maximum Dry-Bulb {BasedOnField A3}
  101061,                                 ! Barometric Pressure {Pa}
  2.9,                                    ! Wind Speed {m/s}
  270,                                    ! Wind Direction {deg}
  0,                                      ! Sky Clearness
  0,                                      ! Rain Indicator
  0,                                      ! Snow Indicator
  21,                                     ! Day of Month
  7,                                      ! Month
  SummerDesignDay,                        ! Day Type
  0,                                      ! Daylight Saving Time Indicator
  Wetbulb,                                ! Humidity Indicating Type
  ,                                       ! Humidity Indicating Day Schedule Name
  DefaultMultipliers,                     ! Dry-Bulb Temperature Range Modifier Type
  ,                                       ! Dry-Bulb Temperature Range Modifier Schedule Name
  ASHRAETau,                              ! Solar Model Indicator
  ,                                       ! Beam Solar Day Schedule Name
  ,                                       ! Diffuse Solar Day Schedule Name
  0.388,                                  ! ASHRAE Taub {dimensionless}
  2.167;                                  ! ASHRAE Taud {dimensionless}

OS:ComponentData,
  {f7d784b5-78ad-40a6-8e4c-2661bf125924}, ! Handle
  Component Data 1,                       ! Name
  {9b204b2e-338c-472d-93f3-fc205f4338cc}, ! UUID
  {29b74089-00b3-4f6b-ab0b-92b31caea0be}, ! Version UUID
  1366304695,                             ! Creation Timestamp
  1366304695,                             ! Version Timestamp
  {9ce4dc82-1ffd-4081-acdd-43fadfac795b}; ! Name of Object 1

