
OS:Version,
  {788bbf59-338c-441c-9542-3d5287204bb4}, ! Handle
  0.9.3;                                  ! Version Identifier

OS:SizingPeriod:DesignDay,
  {c397c99c-1e83-48ce-b0cf-b1008ce248e5}, ! Handle
  Eagle Ann Htg Wind 99.6% Condns WS=>MCDB, ! Name
  1,                                      ! Maximum Dry-Bulb Temperature {C}
  0,                                      ! Daily Dry-Bulb Temperature Range {deltaC}
  1,                                      ! Humidity Indicating Conditions at Maximum Dry-Bulb {BasedOnField A3}
  79564,                                  ! Barometric Pressure {Pa}
  10.4,                                   ! Wind Speed {m/s}
  120,                                    ! Wind Direction {deg}
  0,                                      ! Sky Clearness
  0,                                      ! Rain Indicator
  0,                                      ! Snow Indicator
  21,                                     ! Day of Month
  1,                                      ! Month
  WinterDesignDay,                        ! Day Type
  0,                                      ! Daylight Saving Time Indicator
  Wetbulb,                                ! Humidity Indicating Type
  ,                                       ! Humidity Indicating Day Schedule Name
  DefaultMultipliers,                     ! Dry-Bulb Temperature Range Modifier Type
  ,                                       ! Dry-Bulb Temperature Range Modifier Schedule Name
  ASHRAEClearSky;                         ! Solar Model Indicator

OS:ComponentData,
  {a13dd470-4a55-4596-bf4f-88f9640980d6}, ! Handle
  Component Data 1,                       ! Name
  {9d9f03ae-e30d-4241-87ec-e637ad6c5d0a}, ! UUID
  {acf2898d-078c-4766-b4fb-b41e2da49551}, ! Version UUID
  1366306685,                             ! Creation Timestamp
  1366306685,                             ! Version Timestamp
  {c397c99c-1e83-48ce-b0cf-b1008ce248e5}; ! Name of Object 1

