
OS:Version,
  {aadc7f15-4805-47dc-9cfb-d206523f5a98}, ! Handle
  0.9.3;                                  ! Version Identifier

OS:SizingPeriod:DesignDay,
  {32fc5d8d-0cc0-4632-801c-891cb99c9ff2}, ! Handle
  Jackson Ann Clg .4% Condns DP=>MDB,     ! Name
  28.6,                                   ! Maximum Dry-Bulb Temperature {C}
  10.7,                                   ! Daily Dry-Bulb Temperature Range {deltaC}
  25.1,                                   ! Humidity Indicating Conditions at Maximum Dry-Bulb {BasedOnField A3}
  100118,                                 ! Barometric Pressure {Pa}
  3.2,                                    ! Wind Speed {m/s}
  350,                                    ! Wind Direction {deg}
  0,                                      ! Sky Clearness
  0,                                      ! Rain Indicator
  0,                                      ! Snow Indicator
  21,                                     ! Day of Month
  7,                                      ! Month
  SummerDesignDay,                        ! Day Type
  0,                                      ! Daylight Saving Time Indicator
  Dewpoint,                               ! Humidity Indicating Type
  ,                                       ! Humidity Indicating Day Schedule Name
  DefaultMultipliers,                     ! Dry-Bulb Temperature Range Modifier Type
  ,                                       ! Dry-Bulb Temperature Range Modifier Schedule Name
  ASHRAETau,                              ! Solar Model Indicator
  ,                                       ! Beam Solar Day Schedule Name
  ,                                       ! Diffuse Solar Day Schedule Name
  0.534,                                  ! ASHRAE Taub {dimensionless}
  1.869;                                  ! ASHRAE Taud {dimensionless}

OS:ComponentData,
  {16d08dbb-a85f-4326-a7b1-249f452be1ea}, ! Handle
  Component Data 1,                       ! Name
  {20c8e413-9c50-463b-aaca-9d5110d15d2d}, ! UUID
  {67e6d732-b270-43a0-81a4-a3fc89c8f635}, ! Version UUID
  1366308646,                             ! Creation Timestamp
  1366308646,                             ! Version Timestamp
  {32fc5d8d-0cc0-4632-801c-891cb99c9ff2}; ! Name of Object 1

