
OS:Version,
  {cb306cc6-14a2-4da3-996c-5ffec0425f45}, ! Handle
  0.9.3;                                  ! Version Identifier

OS:SizingPeriod:DesignDay,
  {40ac28cc-020e-4fbe-bb6e-5c450feec521}, ! Handle
  Garden City Municipal Ap Ann Clg 2% Condns WB=>MDB, ! Name
  30.8,                                   ! Maximum Dry-Bulb Temperature {C}
  14.7,                                   ! Daily Dry-Bulb Temperature Range {deltaC}
  21.8,                                   ! Humidity Indicating Conditions at Maximum Dry-Bulb {BasedOnField A3}
  91212,                                  ! Barometric Pressure {Pa}
  7.3,                                    ! Wind Speed {m/s}
  180,                                    ! Wind Direction {deg}
  0,                                      ! Sky Clearness
  0,                                      ! Rain Indicator
  0,                                      ! Snow Indicator
  21,                                     ! Day of Month
  7,                                      ! Month
  SummerDesignDay,                        ! Day Type
  0,                                      ! Daylight Saving Time Indicator
  Wetbulb,                                ! Humidity Indicating Type
  ,                                       ! Humidity Indicating Day Schedule Name
  DefaultMultipliers,                     ! Dry-Bulb Temperature Range Modifier Type
  ,                                       ! Dry-Bulb Temperature Range Modifier Schedule Name
  ASHRAETau,                              ! Solar Model Indicator
  ,                                       ! Beam Solar Day Schedule Name
  ,                                       ! Diffuse Solar Day Schedule Name
  0.422,                                  ! ASHRAE Taub {dimensionless}
  2.104;                                  ! ASHRAE Taud {dimensionless}

