
OS:Version,
  {d6720e56-150a-4f7e-b782-7c894bc770bf}, ! Handle
  0.9.3;                                  ! Version Identifier

OS:SizingPeriod:DesignDay,
  {c87a161b-0839-4463-a065-97cf28bfabc9}, ! Handle
  Estherville Muni Ann Clg 2% Condns WB=>MDB, ! Name
  27.7,                                   ! Maximum Dry-Bulb Temperature {C}
  11,                                     ! Daily Dry-Bulb Temperature Range {deltaC}
  23.5,                                   ! Humidity Indicating Conditions at Maximum Dry-Bulb {BasedOnField A3}
  96600,                                  ! Barometric Pressure {Pa}
  7,                                      ! Wind Speed {m/s}
  180,                                    ! Wind Direction {deg}
  0,                                      ! Sky Clearness
  0,                                      ! Rain Indicator
  0,                                      ! Snow Indicator
  21,                                     ! Day of Month
  7,                                      ! Month
  SummerDesignDay,                        ! Day Type
  0,                                      ! Daylight Saving Time Indicator
  Wetbulb,                                ! Humidity Indicating Type
  ,                                       ! Humidity Indicating Day Schedule Name
  DefaultMultipliers,                     ! Dry-Bulb Temperature Range Modifier Type
  ,                                       ! Dry-Bulb Temperature Range Modifier Schedule Name
  ASHRAETau,                              ! Solar Model Indicator
  ,                                       ! Beam Solar Day Schedule Name
  ,                                       ! Diffuse Solar Day Schedule Name
  0.401,                                  ! ASHRAE Taub {dimensionless}
  2.243;                                  ! ASHRAE Taud {dimensionless}

OS:ComponentData,
  {eb1bd0ce-3678-4feb-9093-6a3987180a50}, ! Handle
  Component Data 1,                       ! Name
  {cebc5d93-68a1-422d-a2fd-e9c812cf2f80}, ! UUID
  {84711760-07b0-4f7b-997b-c0c0d3d7835c}, ! Version UUID
  1366307190,                             ! Creation Timestamp
  1366307190,                             ! Version Timestamp
  {c87a161b-0839-4463-a065-97cf28bfabc9}; ! Name of Object 1

