
OS:Version,
  {198105ab-1eb1-4b4c-9e14-0cd7c08ffdfe}, ! Handle
  0.9.3;                                  ! Version Identifier

OS:SizingPeriod:DesignDay,
  {108f85bd-8270-4c32-a30a-031d46e89f18}, ! Handle
  Ellsworth Afb Ann Clg 2% Condns DB=>MWB, ! Name
  31.5,                                   ! Maximum Dry-Bulb Temperature {C}
  13.9,                                   ! Daily Dry-Bulb Temperature Range {deltaC}
  18.2,                                   ! Humidity Indicating Conditions at Maximum Dry-Bulb {BasedOnField A3}
  90093,                                  ! Barometric Pressure {Pa}
  4.9,                                    ! Wind Speed {m/s}
  160,                                    ! Wind Direction {deg}
  0,                                      ! Sky Clearness
  0,                                      ! Rain Indicator
  0,                                      ! Snow Indicator
  21,                                     ! Day of Month
  7,                                      ! Month
  SummerDesignDay,                        ! Day Type
  0,                                      ! Daylight Saving Time Indicator
  Wetbulb,                                ! Humidity Indicating Type
  ,                                       ! Humidity Indicating Day Schedule Name
  DefaultMultipliers,                     ! Dry-Bulb Temperature Range Modifier Type
  ,                                       ! Dry-Bulb Temperature Range Modifier Schedule Name
  ASHRAETau,                              ! Solar Model Indicator
  ,                                       ! Beam Solar Day Schedule Name
  ,                                       ! Diffuse Solar Day Schedule Name
  0.407,                                  ! ASHRAE Taub {dimensionless}
  2.147;                                  ! ASHRAE Taud {dimensionless}

OS:ComponentData,
  {fb52d27b-ab3d-4a03-a1c8-f85121a7fa1d}, ! Handle
  Component Data 1,                       ! Name
  {daeeac98-8030-48f9-86ff-1d95c1443711}, ! UUID
  {f6f14948-c5af-41f8-bcfb-42c43a29227e}, ! Version UUID
  1366310394,                             ! Creation Timestamp
  1366310394,                             ! Version Timestamp
  {108f85bd-8270-4c32-a30a-031d46e89f18}; ! Name of Object 1

