
OS:Version,
  {09926234-de91-4104-a16a-db9c17eecfa5}, ! Handle
  0.9.3;                                  ! Version Identifier

OS:SizingPeriod:DesignDay,
  {b36229a2-b11a-4f24-862f-3fa618c3b052}, ! Handle
  Baltimore Blt Washngtn IntL Ann Clg 1% Condns DP=>MDB, ! Name
  27.1,                                   ! Maximum Dry-Bulb Temperature {C}
  10.4,                                   ! Daily Dry-Bulb Temperature Range {deltaC}
  23.4,                                   ! Humidity Indicating Conditions at Maximum Dry-Bulb {BasedOnField A3}
  100786,                                 ! Barometric Pressure {Pa}
  4.6,                                    ! Wind Speed {m/s}
  280,                                    ! Wind Direction {deg}
  0,                                      ! Sky Clearness
  0,                                      ! Rain Indicator
  0,                                      ! Snow Indicator
  21,                                     ! Day of Month
  7,                                      ! Month
  SummerDesignDay,                        ! Day Type
  0,                                      ! Daylight Saving Time Indicator
  Dewpoint,                               ! Humidity Indicating Type
  ,                                       ! Humidity Indicating Day Schedule Name
  DefaultMultipliers,                     ! Dry-Bulb Temperature Range Modifier Type
  ,                                       ! Dry-Bulb Temperature Range Modifier Schedule Name
  ASHRAETau,                              ! Solar Model Indicator
  ,                                       ! Beam Solar Day Schedule Name
  ,                                       ! Diffuse Solar Day Schedule Name
  0.552,                                  ! ASHRAE Taub {dimensionless}
  1.769;                                  ! ASHRAE Taud {dimensionless}

OS:ComponentData,
  {09f7dbe6-f7a2-4454-af78-ef019b827fb2}, ! Handle
  Component Data 1,                       ! Name
  {4cedc20d-1d79-473f-ac07-68930a7377d6}, ! UUID
  {5588ba90-683b-4c6c-865c-7857780c53f7}, ! Version UUID
  1366307842,                             ! Creation Timestamp
  1366307842,                             ! Version Timestamp
  {b36229a2-b11a-4f24-862f-3fa618c3b052}; ! Name of Object 1

