
OS:Version,
  {86fb4e61-48f3-4ebd-808f-32f8d4acd763}, ! Handle
  0.9.3;                                  ! Version Identifier

OS:SizingPeriod:DesignDay,
  {1e5a46f7-aef4-4a7b-a1ac-ad2d7d3dc169}, ! Handle
  Bismarck Ann Hum_n 99% Condns DP=>MCDB, ! Name
  -25.2,                                  ! Maximum Dry-Bulb Temperature {C}
  0,                                      ! Daily Dry-Bulb Temperature Range {deltaC}
  -29.4,                                  ! Humidity Indicating Conditions at Maximum Dry-Bulb {BasedOnField A3}
  95392,                                  ! Barometric Pressure {Pa}
  3.7,                                    ! Wind Speed {m/s}
  320,                                    ! Wind Direction {deg}
  0,                                      ! Sky Clearness
  0,                                      ! Rain Indicator
  0,                                      ! Snow Indicator
  21,                                     ! Day of Month
  1,                                      ! Month
  WinterDesignDay,                        ! Day Type
  0,                                      ! Daylight Saving Time Indicator
  Dewpoint,                               ! Humidity Indicating Type
  ,                                       ! Humidity Indicating Day Schedule Name
  DefaultMultipliers,                     ! Dry-Bulb Temperature Range Modifier Type
  ,                                       ! Dry-Bulb Temperature Range Modifier Schedule Name
  ASHRAEClearSky;                         ! Solar Model Indicator

OS:ComponentData,
  {7a646dfa-52d2-4974-b6c7-24587057e7a4}, ! Handle
  Component Data 1,                       ! Name
  {85cb3291-e959-4858-9a51-d4fcf8c3b33b}, ! UUID
  {db1e174d-12be-48d9-a029-c3c18dfbd530}, ! Version UUID
  1366309002,                             ! Creation Timestamp
  1366309002,                             ! Version Timestamp
  {1e5a46f7-aef4-4a7b-a1ac-ad2d7d3dc169}; ! Name of Object 1

