
OS:Version,
  {38b4de04-cd90-4f5d-94b7-3136dcd53a44}, ! Handle
  0.9.3;                                  ! Version Identifier

OS:SizingPeriod:DesignDay,
  {cdcf3368-4a06-464c-af22-de7159567c4c}, ! Handle
  Fort Wayne Intl Ap Ann Clg .4% Condns DB=>MWB, ! Name
  32.8,                                   ! Maximum Dry-Bulb Temperature {C}
  11.1,                                   ! Daily Dry-Bulb Temperature Range {deltaC}
  23.5,                                   ! Humidity Indicating Conditions at Maximum Dry-Bulb {BasedOnField A3}
  98463,                                  ! Barometric Pressure {Pa}
  5,                                      ! Wind Speed {m/s}
  240,                                    ! Wind Direction {deg}
  0,                                      ! Sky Clearness
  0,                                      ! Rain Indicator
  0,                                      ! Snow Indicator
  21,                                     ! Day of Month
  7,                                      ! Month
  SummerDesignDay,                        ! Day Type
  0,                                      ! Daylight Saving Time Indicator
  Wetbulb,                                ! Humidity Indicating Type
  ,                                       ! Humidity Indicating Day Schedule Name
  DefaultMultipliers,                     ! Dry-Bulb Temperature Range Modifier Type
  ,                                       ! Dry-Bulb Temperature Range Modifier Schedule Name
  ASHRAETau,                              ! Solar Model Indicator
  ,                                       ! Beam Solar Day Schedule Name
  ,                                       ! Diffuse Solar Day Schedule Name
  0.451,                                  ! ASHRAE Taub {dimensionless}
  2.059;                                  ! ASHRAE Taud {dimensionless}

OS:ComponentData,
  {ebce8e9a-ccbb-4b64-b46c-4ec0e9b26536}, ! Handle
  Component Data 1,                       ! Name
  {0e7a3e44-e6a6-48ff-a18a-8929ef5bd4f2}, ! UUID
  {d0127446-ffd2-411f-a739-78c5b63d47bb}, ! Version UUID
  1366307446,                             ! Creation Timestamp
  1366307446,                             ! Version Timestamp
  {cdcf3368-4a06-464c-af22-de7159567c4c}; ! Name of Object 1

