
OS:Version,
  {88bbda28-a09a-4bbc-a813-6c38072b13fa}, ! Handle
  0.9.3;                                  ! Version Identifier

OS:SizingPeriod:DesignDay,
  {5e3fdf00-9341-4085-9184-b85239fd02b0}, ! Handle
  Lakeview  Awos Ann Htg Wind 99.6% Condns WS=>MCDB, ! Name
  1.9,                                    ! Maximum Dry-Bulb Temperature {C}
  0,                                      ! Daily Dry-Bulb Temperature Range {deltaC}
  1.9,                                    ! Humidity Indicating Conditions at Maximum Dry-Bulb {BasedOnField A3}
  85170,                                  ! Barometric Pressure {Pa}
  12.9,                                   ! Wind Speed {m/s}
  350,                                    ! Wind Direction {deg}
  0,                                      ! Sky Clearness
  0,                                      ! Rain Indicator
  0,                                      ! Snow Indicator
  21,                                     ! Day of Month
  12,                                     ! Month
  WinterDesignDay,                        ! Day Type
  0,                                      ! Daylight Saving Time Indicator
  Wetbulb,                                ! Humidity Indicating Type
  ,                                       ! Humidity Indicating Day Schedule Name
  DefaultMultipliers,                     ! Dry-Bulb Temperature Range Modifier Type
  ,                                       ! Dry-Bulb Temperature Range Modifier Schedule Name
  ASHRAEClearSky;                         ! Solar Model Indicator

OS:ComponentData,
  {e58a3185-b9c4-4908-a3d2-d8a5dd4d360c}, ! Handle
  Component Data 1,                       ! Name
  {1e15f224-f5f2-448b-92f3-44916b5b39d8}, ! UUID
  {5134d6fd-cfc8-4672-adda-9dcf44f12924}, ! Version UUID
  1366310025,                             ! Creation Timestamp
  1366310025,                             ! Version Timestamp
  {5e3fdf00-9341-4085-9184-b85239fd02b0}; ! Name of Object 1

