
OS:Version,
  {2c78e57c-a5c8-4f63-b62e-b7679683e14a}, ! Handle
  0.9.3;                                  ! Version Identifier

OS:SizingPeriod:DesignDay,
  {e826be06-b5b7-4fb7-9d9d-ba707507f145}, ! Handle
  Deadhorse Ann Clg .4% Condns DB=>MWB,   ! Name
  19.1,                                   ! Maximum Dry-Bulb Temperature {C}
  7.7,                                    ! Daily Dry-Bulb Temperature Range {deltaC}
  14,                                     ! Humidity Indicating Conditions at Maximum Dry-Bulb {BasedOnField A3}
  101049,                                 ! Barometric Pressure {Pa}
  5.1,                                    ! Wind Speed {m/s}
  80,                                     ! Wind Direction {deg}
  0,                                      ! Sky Clearness
  0,                                      ! Rain Indicator
  0,                                      ! Snow Indicator
  21,                                     ! Day of Month
  7,                                      ! Month
  SummerDesignDay,                        ! Day Type
  0,                                      ! Daylight Saving Time Indicator
  Wetbulb,                                ! Humidity Indicating Type
  ,                                       ! Humidity Indicating Day Schedule Name
  DefaultMultipliers,                     ! Dry-Bulb Temperature Range Modifier Type
  ,                                       ! Dry-Bulb Temperature Range Modifier Schedule Name
  ASHRAETau,                              ! Solar Model Indicator
  ,                                       ! Beam Solar Day Schedule Name
  ,                                       ! Diffuse Solar Day Schedule Name
  0.376,                                  ! ASHRAE Taub {dimensionless}
  2.111;                                  ! ASHRAE Taud {dimensionless}

OS:ComponentData,
  {4d46a05a-9565-4806-a457-7a16cf399426}, ! Handle
  Component Data 1,                       ! Name
  {24144075-6d17-4f53-8913-298823158feb}, ! UUID
  {7c3f5174-6650-4289-b9af-67177f221ea7}, ! Version UUID
  1366305210,                             ! Creation Timestamp
  1366305210,                             ! Version Timestamp
  {e826be06-b5b7-4fb7-9d9d-ba707507f145}; ! Name of Object 1

