
OS:Version,
  {930bba56-1583-4d4e-89e1-9e6329d65904}, ! Handle
  0.9.3;                                  ! Version Identifier

OS:SizingPeriod:DesignDay,
  {df8ea43b-2641-40be-844f-9ecdb12ebfe8}, ! Handle
  Columbus Port Columbus Intl A Ann Clg 1% Condns DB=>MWB, ! Name
  31.5,                                   ! Maximum Dry-Bulb Temperature {C}
  10.5,                                   ! Daily Dry-Bulb Temperature Range {deltaC}
  22.7,                                   ! Humidity Indicating Conditions at Maximum Dry-Bulb {BasedOnField A3}
  98393,                                  ! Barometric Pressure {Pa}
  4.3,                                    ! Wind Speed {m/s}
  240,                                    ! Wind Direction {deg}
  0,                                      ! Sky Clearness
  0,                                      ! Rain Indicator
  0,                                      ! Snow Indicator
  21,                                     ! Day of Month
  7,                                      ! Month
  SummerDesignDay,                        ! Day Type
  0,                                      ! Daylight Saving Time Indicator
  Wetbulb,                                ! Humidity Indicating Type
  ,                                       ! Humidity Indicating Day Schedule Name
  DefaultMultipliers,                     ! Dry-Bulb Temperature Range Modifier Type
  ,                                       ! Dry-Bulb Temperature Range Modifier Schedule Name
  ASHRAETau,                              ! Solar Model Indicator
  ,                                       ! Beam Solar Day Schedule Name
  ,                                       ! Diffuse Solar Day Schedule Name
  0.484,                                  ! ASHRAE Taub {dimensionless}
  1.943;                                  ! ASHRAE Taud {dimensionless}

OS:ComponentData,
  {522a93aa-9854-4a82-be2a-e79567ce599e}, ! Handle
  Component Data 1,                       ! Name
  {fbf0853b-945a-46c4-8517-c06fb7e1b7c9}, ! UUID
  {64255cbe-d01f-400a-867c-75eb5225661d}, ! Version UUID
  1366309798,                             ! Creation Timestamp
  1366309798,                             ! Version Timestamp
  {df8ea43b-2641-40be-844f-9ecdb12ebfe8}; ! Name of Object 1

