
OS:Version,
  {c9e54c97-313a-4e6f-8a7c-e2c5ae7c6e6b}, ! Handle
  0.9.3;                                  ! Version Identifier

OS:SizingPeriod:DesignDay,
  {44105e73-2ce0-4197-a002-e97e90dd0bdd}, ! Handle
  Anderson County Ap Ann Clg 1% Condns Enth=>MDB, ! Name
  30.8,                                   ! Maximum Dry-Bulb Temperature {C}
  10.9,                                   ! Daily Dry-Bulb Temperature Range {deltaC}
  76400,                                  ! Humidity Indicating Conditions at Maximum Dry-Bulb {BasedOnField A3}
  98569,                                  ! Barometric Pressure {Pa}
  3.8,                                    ! Wind Speed {m/s}
  250,                                    ! Wind Direction {deg}
  0,                                      ! Sky Clearness
  0,                                      ! Rain Indicator
  0,                                      ! Snow Indicator
  21,                                     ! Day of Month
  7,                                      ! Month
  SummerDesignDay,                        ! Day Type
  0,                                      ! Daylight Saving Time Indicator
  Enthalpy,                               ! Humidity Indicating Type
  ,                                       ! Humidity Indicating Day Schedule Name
  DefaultMultipliers,                     ! Dry-Bulb Temperature Range Modifier Type
  ,                                       ! Dry-Bulb Temperature Range Modifier Schedule Name
  ASHRAETau,                              ! Solar Model Indicator
  ,                                       ! Beam Solar Day Schedule Name
  ,                                       ! Diffuse Solar Day Schedule Name
  0.545,                                  ! ASHRAE Taub {dimensionless}
  1.797;                                  ! ASHRAE Taud {dimensionless}

OS:ComponentData,
  {f4fe44a3-03ed-4c55-8917-15d39d73d18c}, ! Handle
  Component Data 1,                       ! Name
  {57c11433-82ba-4d65-8e9f-fe458cc58e17}, ! UUID
  {3b23472f-b3f9-4343-8071-7ab8c73037d4}, ! Version UUID
  1366310314,                             ! Creation Timestamp
  1366310314,                             ! Version Timestamp
  {44105e73-2ce0-4197-a002-e97e90dd0bdd}; ! Name of Object 1

