
OS:Version,
  {2e1dbf4e-cb83-4b98-a556-98bf2f3e77dd}, ! Handle
  0.9.3;                                  ! Version Identifier

OS:SizingPeriod:DesignDay,
  {03be6f9e-cdf0-4d6e-bf9e-1f15f6c806f8}, ! Handle
  Lebanon Municipal Ann Clg .4% Condns Enth=>MDB, ! Name
  28.6,                                   ! Maximum Dry-Bulb Temperature {C}
  12.9,                                   ! Daily Dry-Bulb Temperature Range {deltaC}
  70000,                                  ! Humidity Indicating Conditions at Maximum Dry-Bulb {BasedOnField A3}
  99158,                                  ! Barometric Pressure {Pa}
  4,                                      ! Wind Speed {m/s}
  220,                                    ! Wind Direction {deg}
  0,                                      ! Sky Clearness
  0,                                      ! Rain Indicator
  0,                                      ! Snow Indicator
  21,                                     ! Day of Month
  7,                                      ! Month
  SummerDesignDay,                        ! Day Type
  0,                                      ! Daylight Saving Time Indicator
  Enthalpy,                               ! Humidity Indicating Type
  ,                                       ! Humidity Indicating Day Schedule Name
  DefaultMultipliers,                     ! Dry-Bulb Temperature Range Modifier Type
  ,                                       ! Dry-Bulb Temperature Range Modifier Schedule Name
  ASHRAETau,                              ! Solar Model Indicator
  ,                                       ! Beam Solar Day Schedule Name
  ,                                       ! Diffuse Solar Day Schedule Name
  0.443,                                  ! ASHRAE Taub {dimensionless}
  2.066;                                  ! ASHRAE Taud {dimensionless}

OS:ComponentData,
  {0766007a-dca3-46a9-aeaa-2adb6e24d4fc}, ! Handle
  Component Data 1,                       ! Name
  {75fc1f6c-f70b-4e48-af20-d2d882031926}, ! UUID
  {035a91ec-82ad-409a-9112-6174f426d96b}, ! Version UUID
  1366309259,                             ! Creation Timestamp
  1366309259,                             ! Version Timestamp
  {03be6f9e-cdf0-4d6e-bf9e-1f15f6c806f8}; ! Name of Object 1

