
OS:Version,
  {f904d565-3510-4f80-a2f8-fec401fd5db1}, ! Handle
  0.9.3;                                  ! Version Identifier

OS:SizingPeriod:DesignDay,
  {7b6d3561-c39b-4018-b19a-a5cfe02e7464}, ! Handle
  Bismarck Municipal Arpt  Isis Ann Clg .4% Condns Enth=>MDB, ! Name
  29.6,                                   ! Maximum Dry-Bulb Temperature {C}
  14.2,                                   ! Daily Dry-Bulb Temperature Range {deltaC}
  72900,                                  ! Humidity Indicating Conditions at Maximum Dry-Bulb {BasedOnField A3}
  95438,                                  ! Barometric Pressure {Pa}
  6,                                      ! Wind Speed {m/s}
  160,                                    ! Wind Direction {deg}
  0,                                      ! Sky Clearness
  0,                                      ! Rain Indicator
  0,                                      ! Snow Indicator
  21,                                     ! Day of Month
  7,                                      ! Month
  SummerDesignDay,                        ! Day Type
  0,                                      ! Daylight Saving Time Indicator
  Enthalpy,                               ! Humidity Indicating Type
  ,                                       ! Humidity Indicating Day Schedule Name
  DefaultMultipliers,                     ! Dry-Bulb Temperature Range Modifier Type
  ,                                       ! Dry-Bulb Temperature Range Modifier Schedule Name
  ASHRAETau,                              ! Solar Model Indicator
  ,                                       ! Beam Solar Day Schedule Name
  ,                                       ! Diffuse Solar Day Schedule Name
  0.393,                                  ! ASHRAE Taub {dimensionless}
  2.249;                                  ! ASHRAE Taud {dimensionless}

OS:ComponentData,
  {0e522cb9-4a59-4800-8984-121e85291d34}, ! Handle
  Component Data 1,                       ! Name
  {1aa797f0-6950-4ceb-9ca7-e260976fcd7d}, ! UUID
  {c4b80c42-0da1-4c28-af9d-0761058dae08}, ! Version UUID
  1366309008,                             ! Creation Timestamp
  1366309008,                             ! Version Timestamp
  {7b6d3561-c39b-4018-b19a-a5cfe02e7464}; ! Name of Object 1

