
OS:Version,
  {d720bddc-f5a3-4df3-b2d7-226e28661f58}, ! Handle
  0.9.3;                                  ! Version Identifier

OS:SizingPeriod:DesignDay,
  {364e1ae4-ba23-4a14-8a1b-4519c9f2db79}, ! Handle
  Fort Smith Ann Htg 99.6% Condns DB,     ! Name
  -9.6,                                   ! Maximum Dry-Bulb Temperature {C}
  0,                                      ! Daily Dry-Bulb Temperature Range {deltaC}
  -9.6,                                   ! Humidity Indicating Conditions at Maximum Dry-Bulb {BasedOnField A3}
  99643,                                  ! Barometric Pressure {Pa}
  3.8,                                    ! Wind Speed {m/s}
  350,                                    ! Wind Direction {deg}
  0,                                      ! Sky Clearness
  0,                                      ! Rain Indicator
  0,                                      ! Snow Indicator
  21,                                     ! Day of Month
  1,                                      ! Month
  WinterDesignDay,                        ! Day Type
  0,                                      ! Daylight Saving Time Indicator
  Wetbulb,                                ! Humidity Indicating Type
  ,                                       ! Humidity Indicating Day Schedule Name
  DefaultMultipliers,                     ! Dry-Bulb Temperature Range Modifier Type
  ,                                       ! Dry-Bulb Temperature Range Modifier Schedule Name
  ASHRAEClearSky;                         ! Solar Model Indicator

OS:ComponentData,
  {6768dad7-4bae-41f3-a72b-95a842af1300}, ! Handle
  Component Data 1,                       ! Name
  {250e6f51-f353-4f71-9415-ec92e106203f}, ! UUID
  {45dbe74c-b9dc-401c-a83e-066d71e22fd1}, ! Version UUID
  1366306209,                             ! Creation Timestamp
  1366306209,                             ! Version Timestamp
  {364e1ae4-ba23-4a14-8a1b-4519c9f2db79}; ! Name of Object 1

