
OS:Version,
  {11f5cc81-8ba2-4405-ba07-cd0596931955}, ! Handle
  0.9.3;                                  ! Version Identifier

OS:SizingPeriod:DesignDay,
  {d08b54bb-6a65-428b-8cb2-37720317abf6}, ! Handle
  Grand Rapids Ann Htg Wind 99% Condns WS=>MCDB, ! Name
  -3.1,                                   ! Maximum Dry-Bulb Temperature {C}
  0,                                      ! Daily Dry-Bulb Temperature Range {deltaC}
  -3.1,                                   ! Humidity Indicating Conditions at Maximum Dry-Bulb {BasedOnField A3}
  98416,                                  ! Barometric Pressure {Pa}
  11.6,                                   ! Wind Speed {m/s}
  200,                                    ! Wind Direction {deg}
  0,                                      ! Sky Clearness
  0,                                      ! Rain Indicator
  0,                                      ! Snow Indicator
  21,                                     ! Day of Month
  1,                                      ! Month
  WinterDesignDay,                        ! Day Type
  0,                                      ! Daylight Saving Time Indicator
  Wetbulb,                                ! Humidity Indicating Type
  ,                                       ! Humidity Indicating Day Schedule Name
  DefaultMultipliers,                     ! Dry-Bulb Temperature Range Modifier Type
  ,                                       ! Dry-Bulb Temperature Range Modifier Schedule Name
  ASHRAEClearSky;                         ! Solar Model Indicator

OS:ComponentData,
  {84fb7927-f58e-44ce-b3a9-84be9aedefbb}, ! Handle
  Component Data 1,                       ! Name
  {53d8992c-f13c-4443-866c-24d1773cc330}, ! UUID
  {68cc057d-ca8d-4ca9-8c6c-49ec453d1476}, ! Version UUID
  1366308009,                             ! Creation Timestamp
  1366308009,                             ! Version Timestamp
  {d08b54bb-6a65-428b-8cb2-37720317abf6}; ! Name of Object 1

