
OS:Version,
  {0a49de5d-1900-4d7c-8527-dc8ddea252a0}, ! Handle
  0.9.3;                                  ! Version Identifier

OS:SizingPeriod:DesignDay,
  {65a97343-56cd-499e-b694-bd2b4178745a}, ! Handle
  Lakehurst NAS Ann Clg 2% Condns DP=>MDB, ! Name
  26.8,                                   ! Maximum Dry-Bulb Temperature {C}
  10.6,                                   ! Daily Dry-Bulb Temperature Range {deltaC}
  22.7,                                   ! Humidity Indicating Conditions at Maximum Dry-Bulb {BasedOnField A3}
  100917,                                 ! Barometric Pressure {Pa}
  4,                                      ! Wind Speed {m/s}
  240,                                    ! Wind Direction {deg}
  0,                                      ! Sky Clearness
  0,                                      ! Rain Indicator
  0,                                      ! Snow Indicator
  21,                                     ! Day of Month
  7,                                      ! Month
  SummerDesignDay,                        ! Day Type
  0,                                      ! Daylight Saving Time Indicator
  Dewpoint,                               ! Humidity Indicating Type
  ,                                       ! Humidity Indicating Day Schedule Name
  DefaultMultipliers,                     ! Dry-Bulb Temperature Range Modifier Type
  ,                                       ! Dry-Bulb Temperature Range Modifier Schedule Name
  ASHRAETau,                              ! Solar Model Indicator
  ,                                       ! Beam Solar Day Schedule Name
  ,                                       ! Diffuse Solar Day Schedule Name
  0.539,                                  ! ASHRAE Taub {dimensionless}
  1.807;                                  ! ASHRAE Taud {dimensionless}

OS:ComponentData,
  {64530b14-07a4-4b47-98d7-35e90977d182}, ! Handle
  Component Data 1,                       ! Name
  {abe075db-5fa6-46c1-9d42-dee49bf04e54}, ! UUID
  {bdf9e40e-22c1-421b-bbfd-832aa3c3d5b1}, ! Version UUID
  1366309309,                             ! Creation Timestamp
  1366309309,                             ! Version Timestamp
  {65a97343-56cd-499e-b694-bd2b4178745a}; ! Name of Object 1

