
OS:Version,
  {b5c6a95e-c8ed-43b6-a0eb-15f33970c217}, ! Handle
  0.9.3;                                  ! Version Identifier

OS:SizingPeriod:DesignDay,
  {4ace40cc-f83a-4b59-be75-a7f158461f50}, ! Handle
  BOISE Ann Clg 1% Condns Enth=>MDB,      ! Name
  32.1,                                   ! Maximum Dry-Bulb Temperature {C}
  16.7,                                   ! Daily Dry-Bulb Temperature Range {deltaC}
  54800,                                  ! Humidity Indicating Conditions at Maximum Dry-Bulb {BasedOnField A3}
  91257,                                  ! Barometric Pressure {Pa}
  4.2,                                    ! Wind Speed {m/s}
  330,                                    ! Wind Direction {deg}
  0,                                      ! Sky Clearness
  0,                                      ! Rain Indicator
  0,                                      ! Snow Indicator
  21,                                     ! Day of Month
  7,                                      ! Month
  SummerDesignDay,                        ! Day Type
  0,                                      ! Daylight Saving Time Indicator
  Enthalpy,                               ! Humidity Indicating Type
  ,                                       ! Humidity Indicating Day Schedule Name
  DefaultMultipliers,                     ! Dry-Bulb Temperature Range Modifier Type
  ,                                       ! Dry-Bulb Temperature Range Modifier Schedule Name
  ASHRAETau,                              ! Solar Model Indicator
  ,                                       ! Beam Solar Day Schedule Name
  ,                                       ! Diffuse Solar Day Schedule Name
  0.398,                                  ! ASHRAE Taub {dimensionless}
  2.125;                                  ! ASHRAE Taud {dimensionless}

OS:ComponentData,
  {9c7269e6-32ba-41e2-8a04-69e78bff337d}, ! Handle
  Component Data 1,                       ! Name
  {df50eaac-50ff-4b25-99fb-f89ecc787920}, ! UUID
  {4063d686-696d-4a07-9f05-52d9002cbdae}, ! Version UUID
  1366307263,                             ! Creation Timestamp
  1366307263,                             ! Version Timestamp
  {4ace40cc-f83a-4b59-be75-a7f158461f50}; ! Name of Object 1

