
OS:Version,
  {f17eac22-1a32-4e8c-b1c5-c3b215397c35}, ! Handle
  0.9.3;                                  ! Version Identifier

OS:SizingPeriod:DesignDay,
  {7e060340-2fda-403b-a659-a6488a1e904a}, ! Handle
  Keokuk Muni Ann Htg Wind 99% Condns WS=>MCDB, ! Name
  -1.3,                                   ! Maximum Dry-Bulb Temperature {C}
  0,                                      ! Daily Dry-Bulb Temperature Range {deltaC}
  -1.3,                                   ! Humidity Indicating Conditions at Maximum Dry-Bulb {BasedOnField A3}
  98886,                                  ! Barometric Pressure {Pa}
  10.2,                                   ! Wind Speed {m/s}
  290,                                    ! Wind Direction {deg}
  0,                                      ! Sky Clearness
  0,                                      ! Rain Indicator
  0,                                      ! Snow Indicator
  21,                                     ! Day of Month
  1,                                      ! Month
  WinterDesignDay,                        ! Day Type
  0,                                      ! Daylight Saving Time Indicator
  Wetbulb,                                ! Humidity Indicating Type
  ,                                       ! Humidity Indicating Day Schedule Name
  DefaultMultipliers,                     ! Dry-Bulb Temperature Range Modifier Type
  ,                                       ! Dry-Bulb Temperature Range Modifier Schedule Name
  ASHRAEClearSky;                         ! Solar Model Indicator

OS:ComponentData,
  {ebff7301-c375-4e4a-ab44-7cfd70bfda10}, ! Handle
  Component Data 1,                       ! Name
  {93ec8267-eb0f-4b84-b705-91134a9b5c59}, ! UUID
  {6f5f7d95-9bff-4dac-9b58-b0e0800c14b2}, ! Version UUID
  1366307202,                             ! Creation Timestamp
  1366307202,                             ! Version Timestamp
  {7e060340-2fda-403b-a659-a6488a1e904a}; ! Name of Object 1

