
OS:Version,
  {699a3a95-e182-47db-a8be-18b2f1298a33}, ! Handle
  0.9.3;                                  ! Version Identifier

OS:SizingPeriod:DesignDay,
  {064fe403-ba3f-4cc9-b2e2-159fcf73d1be}, ! Handle
  Birmingham Ann Clg 2% Condns Enth=>MDB, ! Name
  30.3,                                   ! Maximum Dry-Bulb Temperature {C}
  10.3,                                   ! Daily Dry-Bulb Temperature Range {deltaC}
  76100,                                  ! Humidity Indicating Conditions at Maximum Dry-Bulb {BasedOnField A3}
  99040,                                  ! Barometric Pressure {Pa}
  3.5,                                    ! Wind Speed {m/s}
  330,                                    ! Wind Direction {deg}
  0,                                      ! Sky Clearness
  0,                                      ! Rain Indicator
  0,                                      ! Snow Indicator
  21,                                     ! Day of Month
  7,                                      ! Month
  SummerDesignDay,                        ! Day Type
  0,                                      ! Daylight Saving Time Indicator
  Enthalpy,                               ! Humidity Indicating Type
  ,                                       ! Humidity Indicating Day Schedule Name
  DefaultMultipliers,                     ! Dry-Bulb Temperature Range Modifier Type
  ,                                       ! Dry-Bulb Temperature Range Modifier Schedule Name
  ASHRAETau,                              ! Solar Model Indicator
  ,                                       ! Beam Solar Day Schedule Name
  ,                                       ! Diffuse Solar Day Schedule Name
  0.583,                                  ! ASHRAE Taub {dimensionless}
  1.723;                                  ! ASHRAE Taud {dimensionless}

OS:ComponentData,
  {933ad627-358c-4dc3-8ed5-c2bda6c40a02}, ! Handle
  Component Data 1,                       ! Name
  {c7f8dadc-a0e3-46d1-8622-9bc95df10acd}, ! UUID
  {ae40cfd1-f9c6-4801-81c5-2ef81e24687b}, ! Version UUID
  1366305644,                             ! Creation Timestamp
  1366305644,                             ! Version Timestamp
  {064fe403-ba3f-4cc9-b2e2-159fcf73d1be}; ! Name of Object 1

