
OS:Version,
  {488673fd-fb57-4a78-93ef-e4390dcbad14}, ! Handle
  0.9.3;                                  ! Version Identifier

OS:SizingPeriod:DesignDay,
  {56ff4bbc-1f47-45c7-ae9b-96d4f7914d35}, ! Handle
  Howell Ann Clg 1% Condns Enth=>MDB,     ! Name
  28.3,                                   ! Maximum Dry-Bulb Temperature {C}
  12,                                     ! Daily Dry-Bulb Temperature Range {deltaC}
  72600,                                  ! Humidity Indicating Conditions at Maximum Dry-Bulb {BasedOnField A3}
  97854,                                  ! Barometric Pressure {Pa}
  4.1,                                    ! Wind Speed {m/s}
  220,                                    ! Wind Direction {deg}
  0,                                      ! Sky Clearness
  0,                                      ! Rain Indicator
  0,                                      ! Snow Indicator
  21,                                     ! Day of Month
  7,                                      ! Month
  SummerDesignDay,                        ! Day Type
  0,                                      ! Daylight Saving Time Indicator
  Enthalpy,                               ! Humidity Indicating Type
  ,                                       ! Humidity Indicating Day Schedule Name
  DefaultMultipliers,                     ! Dry-Bulb Temperature Range Modifier Type
  ,                                       ! Dry-Bulb Temperature Range Modifier Schedule Name
  ASHRAETau,                              ! Solar Model Indicator
  ,                                       ! Beam Solar Day Schedule Name
  ,                                       ! Diffuse Solar Day Schedule Name
  0.445,                                  ! ASHRAE Taub {dimensionless}
  2.057;                                  ! ASHRAE Taud {dimensionless}

OS:ComponentData,
  {b17df0b6-1982-46e9-80ea-31e7fc4239fb}, ! Handle
  Component Data 1,                       ! Name
  {3836d40b-9f8d-4c5e-9ab2-fee4fdee6fbd}, ! UUID
  {4663a2f1-4fcd-4a3d-a940-dfac61a0177a}, ! Version UUID
  1366308035,                             ! Creation Timestamp
  1366308035,                             ! Version Timestamp
  {56ff4bbc-1f47-45c7-ae9b-96d4f7914d35}; ! Name of Object 1

