
OS:Version,
  {3b41961b-0bf6-4fc7-b8d1-fa734fcab9f4}, ! Handle
  0.9.3;                                  ! Version Identifier

OS:SizingPeriod:DesignDay,
  {32e5fee2-7a9e-4cb9-886a-03fd3334b613}, ! Handle
  CHATTANOOGA Ann Htg 99.6% Condns DB,    ! Name
  -7.9,                                   ! Maximum Dry-Bulb Temperature {C}
  0,                                      ! Daily Dry-Bulb Temperature Range {deltaC}
  -7.9,                                   ! Humidity Indicating Conditions at Maximum Dry-Bulb {BasedOnField A3}
  98828,                                  ! Barometric Pressure {Pa}
  2.9,                                    ! Wind Speed {m/s}
  0,                                      ! Wind Direction {deg}
  0,                                      ! Sky Clearness
  0,                                      ! Rain Indicator
  0,                                      ! Snow Indicator
  21,                                     ! Day of Month
  1,                                      ! Month
  WinterDesignDay,                        ! Day Type
  0,                                      ! Daylight Saving Time Indicator
  Wetbulb,                                ! Humidity Indicating Type
  ,                                       ! Humidity Indicating Day Schedule Name
  DefaultMultipliers,                     ! Dry-Bulb Temperature Range Modifier Type
  ,                                       ! Dry-Bulb Temperature Range Modifier Schedule Name
  ASHRAEClearSky;                         ! Solar Model Indicator

OS:ComponentData,
  {3e01e85f-56d5-4e87-a3d3-fbf380a2bcd9}, ! Handle
  Component Data 1,                       ! Name
  {c276b499-61be-4086-8f32-f45c3e2d0a38}, ! UUID
  {d73d870e-7cdc-40bc-8bec-66fb89217f90}, ! Version UUID
  1366310491,                             ! Creation Timestamp
  1366310491,                             ! Version Timestamp
  {32e5fee2-7a9e-4cb9-886a-03fd3334b613}; ! Name of Object 1

