
OS:Version,
  {8cd8beca-e728-4ca4-a488-f39dcd9628b4}, ! Handle
  0.9.3;                                  ! Version Identifier

OS:SizingPeriod:DesignDay,
  {b52b368e-8cb3-4f05-a539-5cc583f6100c}, ! Handle
  Columbia Metro Arpt Ann Hum_n 99.6% Condns DP=>MCDB, ! Name
  0.6,                                    ! Maximum Dry-Bulb Temperature {C}
  0,                                      ! Daily Dry-Bulb Temperature Range {deltaC}
  -14.9,                                  ! Humidity Indicating Conditions at Maximum Dry-Bulb {BasedOnField A3}
  100547,                                 ! Barometric Pressure {Pa}
  1.9,                                    ! Wind Speed {m/s}
  270,                                    ! Wind Direction {deg}
  0,                                      ! Sky Clearness
  0,                                      ! Rain Indicator
  0,                                      ! Snow Indicator
  21,                                     ! Day of Month
  1,                                      ! Month
  WinterDesignDay,                        ! Day Type
  0,                                      ! Daylight Saving Time Indicator
  Dewpoint,                               ! Humidity Indicating Type
  ,                                       ! Humidity Indicating Day Schedule Name
  DefaultMultipliers,                     ! Dry-Bulb Temperature Range Modifier Type
  ,                                       ! Dry-Bulb Temperature Range Modifier Schedule Name
  ASHRAEClearSky;                         ! Solar Model Indicator

OS:ComponentData,
  {6a2c3a9d-4fcf-45e0-843b-5808f96ee5d7}, ! Handle
  Component Data 1,                       ! Name
  {32375478-0250-4cd6-aeec-4c36e9afc524}, ! UUID
  {3dae3213-94fe-4a56-b880-3fb8387ca8fd}, ! Version UUID
  1366310347,                             ! Creation Timestamp
  1366310347,                             ! Version Timestamp
  {b52b368e-8cb3-4f05-a539-5cc583f6100c}; ! Name of Object 1

