
OS:Version,
  {aa2b6bf0-0aec-4d01-a2f0-b6e2f82d4577}, ! Handle
  0.9.3;                                  ! Version Identifier

OS:SizingPeriod:DesignDay,
  {ccb0da80-d6c5-4930-ae0e-0c928208aa0f}, ! Handle
  Albany County Ap Ann Clg 2% Condns Enth=>MDB, ! Name
  26.6,                                   ! Maximum Dry-Bulb Temperature {C}
  11.1,                                   ! Daily Dry-Bulb Temperature Range {deltaC}
  66700,                                  ! Humidity Indicating Conditions at Maximum Dry-Bulb {BasedOnField A3}
  100320,                                 ! Barometric Pressure {Pa}
  4.4,                                    ! Wind Speed {m/s}
  180,                                    ! Wind Direction {deg}
  0,                                      ! Sky Clearness
  0,                                      ! Rain Indicator
  0,                                      ! Snow Indicator
  21,                                     ! Day of Month
  7,                                      ! Month
  SummerDesignDay,                        ! Day Type
  0,                                      ! Daylight Saving Time Indicator
  Enthalpy,                               ! Humidity Indicating Type
  ,                                       ! Humidity Indicating Day Schedule Name
  DefaultMultipliers,                     ! Dry-Bulb Temperature Range Modifier Type
  ,                                       ! Dry-Bulb Temperature Range Modifier Schedule Name
  ASHRAETau,                              ! Solar Model Indicator
  ,                                       ! Beam Solar Day Schedule Name
  ,                                       ! Diffuse Solar Day Schedule Name
  0.49,                                   ! ASHRAE Taub {dimensionless}
  1.923;                                  ! ASHRAE Taud {dimensionless}

OS:ComponentData,
  {65e9160e-4954-442d-92f1-4bf5d2ceba2f}, ! Handle
  Component Data 1,                       ! Name
  {344a8f84-fa9f-4241-9025-575546d3a31d}, ! UUID
  {9e33cc06-9963-4a0a-a694-06e28473fa16}, ! Version UUID
  1366309586,                             ! Creation Timestamp
  1366309586,                             ! Version Timestamp
  {ccb0da80-d6c5-4930-ae0e-0c928208aa0f}; ! Name of Object 1

