
OS:Version,
  {1ae7643f-dc17-4e08-ae68-41100501ce04}, ! Handle
  0.9.3;                                  ! Version Identifier

OS:SizingPeriod:DesignDay,
  {931d0504-3dd6-4d43-bf38-294c92d0a32e}, ! Handle
  BALTIMORE Ann Clg 2% Condns DP=>MDB,    ! Name
  26.6,                                   ! Maximum Dry-Bulb Temperature {C}
  10.4,                                   ! Daily Dry-Bulb Temperature Range {deltaC}
  22.8,                                   ! Humidity Indicating Conditions at Maximum Dry-Bulb {BasedOnField A3}
  100762,                                 ! Barometric Pressure {Pa}
  4.6,                                    ! Wind Speed {m/s}
  280,                                    ! Wind Direction {deg}
  0,                                      ! Sky Clearness
  0,                                      ! Rain Indicator
  0,                                      ! Snow Indicator
  21,                                     ! Day of Month
  7,                                      ! Month
  SummerDesignDay,                        ! Day Type
  0,                                      ! Daylight Saving Time Indicator
  Dewpoint,                               ! Humidity Indicating Type
  ,                                       ! Humidity Indicating Day Schedule Name
  DefaultMultipliers,                     ! Dry-Bulb Temperature Range Modifier Type
  ,                                       ! Dry-Bulb Temperature Range Modifier Schedule Name
  ASHRAETau,                              ! Solar Model Indicator
  ,                                       ! Beam Solar Day Schedule Name
  ,                                       ! Diffuse Solar Day Schedule Name
  0.552,                                  ! ASHRAE Taub {dimensionless}
  1.769;                                  ! ASHRAE Taud {dimensionless}

OS:ComponentData,
  {c88635a4-a1f5-4f7d-aab9-a46698ae3ae1}, ! Handle
  Component Data 1,                       ! Name
  {c2047613-b028-4e23-95f4-f406f5eaab29}, ! UUID
  {ec7528ea-aa5a-4e61-ac9c-7004f5673bfb}, ! Version UUID
  1366307849,                             ! Creation Timestamp
  1366307849,                             ! Version Timestamp
  {931d0504-3dd6-4d43-bf38-294c92d0a32e}; ! Name of Object 1

