
OS:Version,
  {08edc326-0e34-46f7-9510-fe3ab28f6161}, ! Handle
  0.9.3;                                  ! Version Identifier

OS:SizingPeriod:DesignDay,
  {66e81e11-8cb5-4a09-9057-a297a766c7c3}, ! Handle
  Lewiston Nez Perce Cnty Ap Ann Clg .4% Condns DB=>MWB, ! Name
  36.6,                                   ! Maximum Dry-Bulb Temperature {C}
  15,                                     ! Daily Dry-Bulb Temperature Range {deltaC}
  18.6,                                   ! Humidity Indicating Conditions at Maximum Dry-Bulb {BasedOnField A3}
  96173,                                  ! Barometric Pressure {Pa}
  3,                                      ! Wind Speed {m/s}
  320,                                    ! Wind Direction {deg}
  0,                                      ! Sky Clearness
  0,                                      ! Rain Indicator
  0,                                      ! Snow Indicator
  21,                                     ! Day of Month
  7,                                      ! Month
  SummerDesignDay,                        ! Day Type
  0,                                      ! Daylight Saving Time Indicator
  Wetbulb,                                ! Humidity Indicating Type
  ,                                       ! Humidity Indicating Day Schedule Name
  DefaultMultipliers,                     ! Dry-Bulb Temperature Range Modifier Type
  ,                                       ! Dry-Bulb Temperature Range Modifier Schedule Name
  ASHRAETau,                              ! Solar Model Indicator
  ,                                       ! Beam Solar Day Schedule Name
  ,                                       ! Diffuse Solar Day Schedule Name
  0.393,                                  ! ASHRAE Taub {dimensionless}
  2.242;                                  ! ASHRAE Taud {dimensionless}

OS:ComponentData,
  {43d97077-2ca9-456f-a096-9b5278e0ddbf}, ! Handle
  Component Data 1,                       ! Name
  {a93904b3-c366-4651-880c-03b0c17d67c7}, ! UUID
  {bcd0aee9-ea67-4eff-a132-e18a9579d2d2}, ! Version UUID
  1366307291,                             ! Creation Timestamp
  1366307291,                             ! Version Timestamp
  {66e81e11-8cb5-4a09-9057-a297a766c7c3}; ! Name of Object 1

