
OS:Version,
  {d3495a44-be38-4127-95aa-3907961a31ae}, ! Handle
  0.9.3;                                  ! Version Identifier

OS:SizingPeriod:DesignDay,
  {d65598c2-f7d6-4113-a71e-98acfa903fa4}, ! Handle
  Block Island State Arpt Ann Htg Wind 99% Condns WS=>MCDB, ! Name
  4.1,                                    ! Maximum Dry-Bulb Temperature {C}
  0,                                      ! Daily Dry-Bulb Temperature Range {deltaC}
  4.1,                                    ! Humidity Indicating Conditions at Maximum Dry-Bulb {BasedOnField A3}
  100917,                                 ! Barometric Pressure {Pa}
  12.6,                                   ! Wind Speed {m/s}
  310,                                    ! Wind Direction {deg}
  0,                                      ! Sky Clearness
  0,                                      ! Rain Indicator
  0,                                      ! Snow Indicator
  21,                                     ! Day of Month
  1,                                      ! Month
  WinterDesignDay,                        ! Day Type
  0,                                      ! Daylight Saving Time Indicator
  Wetbulb,                                ! Humidity Indicating Type
  ,                                       ! Humidity Indicating Day Schedule Name
  DefaultMultipliers,                     ! Dry-Bulb Temperature Range Modifier Type
  ,                                       ! Dry-Bulb Temperature Range Modifier Schedule Name
  ASHRAEClearSky;                         ! Solar Model Indicator

OS:ComponentData,
  {8b6f84f1-3017-4690-bc48-4d24e3584150}, ! Handle
  Component Data 1,                       ! Name
  {5b130784-4710-4e7b-a684-e819e586c159}, ! UUID
  {3a1deaea-7766-4bf0-8f47-16e3776caa87}, ! Version UUID
  1366310288,                             ! Creation Timestamp
  1366310288,                             ! Version Timestamp
  {d65598c2-f7d6-4113-a71e-98acfa903fa4}; ! Name of Object 1

