
OS:Version,
  {7f6ac139-424e-442e-a636-221a111d97f4}, ! Handle
  0.9.3;                                  ! Version Identifier

OS:SizingPeriod:DesignDay,
  {4452fcf9-634e-449e-be03-fd80e9bbad65}, ! Handle
  LA_CROSSE Ann Clg 2% Condns WB=>MDB,    ! Name
  28.2,                                   ! Maximum Dry-Bulb Temperature {C}
  11.1,                                   ! Daily Dry-Bulb Temperature Range {deltaC}
  23.4,                                   ! Humidity Indicating Conditions at Maximum Dry-Bulb {BasedOnField A3}
  98886,                                  ! Barometric Pressure {Pa}
  5.4,                                    ! Wind Speed {m/s}
  180,                                    ! Wind Direction {deg}
  0,                                      ! Sky Clearness
  0,                                      ! Rain Indicator
  0,                                      ! Snow Indicator
  21,                                     ! Day of Month
  7,                                      ! Month
  SummerDesignDay,                        ! Day Type
  0,                                      ! Daylight Saving Time Indicator
  Wetbulb,                                ! Humidity Indicating Type
  ,                                       ! Humidity Indicating Day Schedule Name
  DefaultMultipliers,                     ! Dry-Bulb Temperature Range Modifier Type
  ,                                       ! Dry-Bulb Temperature Range Modifier Schedule Name
  ASHRAETau,                              ! Solar Model Indicator
  ,                                       ! Beam Solar Day Schedule Name
  ,                                       ! Diffuse Solar Day Schedule Name
  0.431,                                  ! ASHRAE Taub {dimensionless}
  2.126;                                  ! ASHRAE Taud {dimensionless}

OS:ComponentData,
  {323fde13-676e-4526-8584-90d1e9646418}, ! Handle
  Component Data 1,                       ! Name
  {a1cfacfd-65d5-4bf0-8ce7-7a3930a6a260}, ! UUID
  {96759fc1-8bb0-4098-b346-cf5e73fa1846}, ! Version UUID
  1366311503,                             ! Creation Timestamp
  1366311503,                             ! Version Timestamp
  {4452fcf9-634e-449e-be03-fd80e9bbad65}; ! Name of Object 1

