
OS:Version,
  {8b612f1e-6825-4a6f-8862-eaa3b16a03a7}, ! Handle
  0.9.3;                                  ! Version Identifier

OS:SizingPeriod:DesignDay,
  {56f49795-7e82-4044-af98-84dba458d384}, ! Handle
  Camarillo  Awos Ann Clg .4% Condns Enth=>MDB, ! Name
  26.1,                                   ! Maximum Dry-Bulb Temperature {C}
  9.7,                                    ! Daily Dry-Bulb Temperature Range {deltaC}
  59400,                                  ! Humidity Indicating Conditions at Maximum Dry-Bulb {BasedOnField A3}
  101049,                                 ! Barometric Pressure {Pa}
  5.8,                                    ! Wind Speed {m/s}
  60,                                     ! Wind Direction {deg}
  0,                                      ! Sky Clearness
  0,                                      ! Rain Indicator
  0,                                      ! Snow Indicator
  21,                                     ! Day of Month
  8,                                      ! Month
  SummerDesignDay,                        ! Day Type
  0,                                      ! Daylight Saving Time Indicator
  Enthalpy,                               ! Humidity Indicating Type
  ,                                       ! Humidity Indicating Day Schedule Name
  DefaultMultipliers,                     ! Dry-Bulb Temperature Range Modifier Type
  ,                                       ! Dry-Bulb Temperature Range Modifier Schedule Name
  ASHRAETau,                              ! Solar Model Indicator
  ,                                       ! Beam Solar Day Schedule Name
  ,                                       ! Diffuse Solar Day Schedule Name
  0.428,                                  ! ASHRAE Taub {dimensionless}
  2.187;                                  ! ASHRAE Taud {dimensionless}

OS:ComponentData,
  {7edc9829-9e83-49f5-8183-803110ac3b7b}, ! Handle
  Component Data 1,                       ! Name
  {aa9adfe3-ad0c-4d7f-b0bd-7cebea35c03e}, ! UUID
  {430571e5-c298-43c6-991e-d24594b042ed}, ! Version UUID
  1366306396,                             ! Creation Timestamp
  1366306396,                             ! Version Timestamp
  {56f49795-7e82-4044-af98-84dba458d384}; ! Name of Object 1

