
OS:Version,
  {a2379902-905a-439e-bdb0-e2e1815516ef}, ! Handle
  0.9.3;                                  ! Version Identifier

OS:SizingPeriod:DesignDay,
  {a5114a69-4676-4db5-8c79-cd501142575e}, ! Handle
  Gulkana Intermediate Field Ann Hum_n 99% Condns DP=>MCDB, ! Name
  -32.8,                                  ! Maximum Dry-Bulb Temperature {C}
  0,                                      ! Daily Dry-Bulb Temperature Range {deltaC}
  -39.3,                                  ! Humidity Indicating Conditions at Maximum Dry-Bulb {BasedOnField A3}
  95713,                                  ! Barometric Pressure {Pa}
  0.6,                                    ! Wind Speed {m/s}
  330,                                    ! Wind Direction {deg}
  0,                                      ! Sky Clearness
  0,                                      ! Rain Indicator
  0,                                      ! Snow Indicator
  21,                                     ! Day of Month
  1,                                      ! Month
  WinterDesignDay,                        ! Day Type
  0,                                      ! Daylight Saving Time Indicator
  Dewpoint,                               ! Humidity Indicating Type
  ,                                       ! Humidity Indicating Day Schedule Name
  DefaultMultipliers,                     ! Dry-Bulb Temperature Range Modifier Type
  ,                                       ! Dry-Bulb Temperature Range Modifier Schedule Name
  ASHRAEClearSky;                         ! Solar Model Indicator

OS:ComponentData,
  {acb069c4-d576-4933-8768-25e01d9323c6}, ! Handle
  Component Data 1,                       ! Name
  {0f3571c1-032b-40b8-9454-3ce36307c6e3}, ! UUID
  {292d7ca1-68d9-44d4-a8d7-423830a6115f}, ! Version UUID
  1366305293,                             ! Creation Timestamp
  1366305293,                             ! Version Timestamp
  {a5114a69-4676-4db5-8c79-cd501142575e}; ! Name of Object 1

