
OS:Version,
  {f4f95f20-3db1-4ef9-a07e-deedfacb6369}, ! Handle
  0.9.3;                                  ! Version Identifier

OS:SizingPeriod:DesignDay,
  {e8025ddc-fdc1-408f-b116-dc402b761ecc}, ! Handle
  Knoxville Mcghee Tyson Ap Ann Clg 1% Condns WB=>MDB, ! Name
  30,                                     ! Maximum Dry-Bulb Temperature {C}
  10.4,                                   ! Daily Dry-Bulb Temperature Range {deltaC}
  24.5,                                   ! Humidity Indicating Conditions at Maximum Dry-Bulb {BasedOnField A3}
  97854,                                  ! Barometric Pressure {Pa}
  3.2,                                    ! Wind Speed {m/s}
  250,                                    ! Wind Direction {deg}
  0,                                      ! Sky Clearness
  0,                                      ! Rain Indicator
  0,                                      ! Snow Indicator
  21,                                     ! Day of Month
  7,                                      ! Month
  SummerDesignDay,                        ! Day Type
  0,                                      ! Daylight Saving Time Indicator
  Wetbulb,                                ! Humidity Indicating Type
  ,                                       ! Humidity Indicating Day Schedule Name
  DefaultMultipliers,                     ! Dry-Bulb Temperature Range Modifier Type
  ,                                       ! Dry-Bulb Temperature Range Modifier Schedule Name
  ASHRAETau,                              ! Solar Model Indicator
  ,                                       ! Beam Solar Day Schedule Name
  ,                                       ! Diffuse Solar Day Schedule Name
  0.547,                                  ! ASHRAE Taub {dimensionless}
  1.786;                                  ! ASHRAE Taud {dimensionless}

OS:ComponentData,
  {0d76e1cd-e190-4222-8ffa-0544d103e7b3}, ! Handle
  Component Data 1,                       ! Name
  {441501b9-e837-41b5-95ff-f460735b98fc}, ! UUID
  {3082fb3c-da02-4bbb-bd5a-688e162c062c}, ! Version UUID
  1366310513,                             ! Creation Timestamp
  1366310513,                             ! Version Timestamp
  {e8025ddc-fdc1-408f-b116-dc402b761ecc}; ! Name of Object 1

