
OS:Version,
  {2cd11a8a-29b5-490b-913d-b7e537fa09c0}, ! Handle
  0.9.3;                                  ! Version Identifier

OS:SizingPeriod:DesignDay,
  {e24296de-d69e-41e7-b47e-6108c14e18fd}, ! Handle
  Buffalo Niagara Intl Ap Ann Clg 1% Condns WB=>MDB, ! Name
  26.7,                                   ! Maximum Dry-Bulb Temperature {C}
  9.3,                                    ! Daily Dry-Bulb Temperature Range {deltaC}
  22.9,                                   ! Humidity Indicating Conditions at Maximum Dry-Bulb {BasedOnField A3}
  98769,                                  ! Barometric Pressure {Pa}
  5.7,                                    ! Wind Speed {m/s}
  240,                                    ! Wind Direction {deg}
  0,                                      ! Sky Clearness
  0,                                      ! Rain Indicator
  0,                                      ! Snow Indicator
  21,                                     ! Day of Month
  7,                                      ! Month
  SummerDesignDay,                        ! Day Type
  0,                                      ! Daylight Saving Time Indicator
  Wetbulb,                                ! Humidity Indicating Type
  ,                                       ! Humidity Indicating Day Schedule Name
  DefaultMultipliers,                     ! Dry-Bulb Temperature Range Modifier Type
  ,                                       ! Dry-Bulb Temperature Range Modifier Schedule Name
  ASHRAETau,                              ! Solar Model Indicator
  ,                                       ! Beam Solar Day Schedule Name
  ,                                       ! Diffuse Solar Day Schedule Name
  0.462,                                  ! ASHRAE Taub {dimensionless}
  2.001;                                  ! ASHRAE Taud {dimensionless}

OS:ComponentData,
  {a5c0aa2f-b41b-4327-845a-5ef8ce845939}, ! Handle
  Component Data 1,                       ! Name
  {dd923e99-3e1a-4b8e-9108-ff6770aa3d6e}, ! UUID
  {8d5fc459-0cfa-47df-a221-c57761e1b80e}, ! Version UUID
  1366309609,                             ! Creation Timestamp
  1366309609,                             ! Version Timestamp
  {e24296de-d69e-41e7-b47e-6108c14e18fd}; ! Name of Object 1

