
OS:Version,
  {d01c762c-1283-4af8-9238-dd91d27d2fc3}, ! Handle
  0.9.3;                                  ! Version Identifier

OS:SizingPeriod:DesignDay,
  {371b999b-06c8-4242-8db3-b15e3d205cf1}, ! Handle
  Butte Bert Mooney Arpt Ann Clg .4% Condns Enth=>MDB, ! Name
  25.9,                                   ! Maximum Dry-Bulb Temperature {C}
  18.3,                                   ! Daily Dry-Bulb Temperature Range {deltaC}
  50400,                                  ! Humidity Indicating Conditions at Maximum Dry-Bulb {BasedOnField A3}
  82613,                                  ! Barometric Pressure {Pa}
  5,                                      ! Wind Speed {m/s}
  0,                                      ! Wind Direction {deg}
  0,                                      ! Sky Clearness
  0,                                      ! Rain Indicator
  0,                                      ! Snow Indicator
  21,                                     ! Day of Month
  7,                                      ! Month
  SummerDesignDay,                        ! Day Type
  0,                                      ! Daylight Saving Time Indicator
  Enthalpy,                               ! Humidity Indicating Type
  ,                                       ! Humidity Indicating Day Schedule Name
  DefaultMultipliers,                     ! Dry-Bulb Temperature Range Modifier Type
  ,                                       ! Dry-Bulb Temperature Range Modifier Schedule Name
  ASHRAETau,                              ! Solar Model Indicator
  ,                                       ! Beam Solar Day Schedule Name
  ,                                       ! Diffuse Solar Day Schedule Name
  0.352,                                  ! ASHRAE Taub {dimensionless}
  2.312;                                  ! ASHRAE Taud {dimensionless}

OS:ComponentData,
  {3819f1c1-e556-4432-9f89-3fcae7e5bd3e}, ! Handle
  Component Data 1,                       ! Name
  {a886ae5c-89b6-4664-8546-e07742976948}, ! UUID
  {c5d10c2b-7a49-41ad-8194-eddbf9694b7e}, ! Version UUID
  1366308727,                             ! Creation Timestamp
  1366308727,                             ! Version Timestamp
  {371b999b-06c8-4242-8db3-b15e3d205cf1}; ! Name of Object 1

