
OS:Version,
  {0fc43f8d-f173-458b-8e4d-88f7a18e5259}, ! Handle
  0.9.3;                                  ! Version Identifier

OS:SizingPeriod:DesignDay,
  {cf6b7da9-8074-4079-9edd-dff9e93a9edd}, ! Handle
  Anchorage Merrill Field Ann Clg .4% Condns DB=>MWB, ! Name
  22.7,                                   ! Maximum Dry-Bulb Temperature {C}
  6.8,                                    ! Daily Dry-Bulb Temperature Range {deltaC}
  15.2,                                   ! Humidity Indicating Conditions at Maximum Dry-Bulb {BasedOnField A3}
  100821,                                 ! Barometric Pressure {Pa}
  2.8,                                    ! Wind Speed {m/s}
  270,                                    ! Wind Direction {deg}
  0,                                      ! Sky Clearness
  0,                                      ! Rain Indicator
  0,                                      ! Snow Indicator
  21,                                     ! Day of Month
  7,                                      ! Month
  SummerDesignDay,                        ! Day Type
  0,                                      ! Daylight Saving Time Indicator
  Wetbulb,                                ! Humidity Indicating Type
  ,                                       ! Humidity Indicating Day Schedule Name
  DefaultMultipliers,                     ! Dry-Bulb Temperature Range Modifier Type
  ,                                       ! Dry-Bulb Temperature Range Modifier Schedule Name
  ASHRAETau,                              ! Solar Model Indicator
  ,                                       ! Beam Solar Day Schedule Name
  ,                                       ! Diffuse Solar Day Schedule Name
  0.39,                                   ! ASHRAE Taub {dimensionless}
  2.155;                                  ! ASHRAE Taud {dimensionless}

