
OS:Version,
  {4839ea36-8ed6-4f26-9ab1-d1e26bcfedac}, ! Handle
  0.9.3;                                  ! Version Identifier

OS:SizingPeriod:DesignDay,
  {e68f936c-59ec-4195-b666-9df05a913b82}, ! Handle
  ELY Ann Clg 1% Condns DP=>MDB,          ! Name
  17.6,                                   ! Maximum Dry-Bulb Temperature {C}
  20.3,                                   ! Daily Dry-Bulb Temperature Range {deltaC}
  11.7,                                   ! Humidity Indicating Conditions at Maximum Dry-Bulb {BasedOnField A3}
  80427,                                  ! Barometric Pressure {Pa}
  5.3,                                    ! Wind Speed {m/s}
  220,                                    ! Wind Direction {deg}
  0,                                      ! Sky Clearness
  0,                                      ! Rain Indicator
  0,                                      ! Snow Indicator
  21,                                     ! Day of Month
  7,                                      ! Month
  SummerDesignDay,                        ! Day Type
  0,                                      ! Daylight Saving Time Indicator
  Dewpoint,                               ! Humidity Indicating Type
  ,                                       ! Humidity Indicating Day Schedule Name
  DefaultMultipliers,                     ! Dry-Bulb Temperature Range Modifier Type
  ,                                       ! Dry-Bulb Temperature Range Modifier Schedule Name
  ASHRAETau,                              ! Solar Model Indicator
  ,                                       ! Beam Solar Day Schedule Name
  ,                                       ! Diffuse Solar Day Schedule Name
  0.442,                                  ! ASHRAE Taub {dimensionless}
  1.871;                                  ! ASHRAE Taud {dimensionless}

OS:ComponentData,
  {d6cf50af-a8ab-475f-8d39-fa1f654c9e5c}, ! Handle
  Component Data 1,                       ! Name
  {2a5c952b-c9cb-4248-b28f-3b4cf04d1ef5}, ! UUID
  {92649c14-c870-4587-9c5b-da853fc641b6}, ! Version UUID
  1366309483,                             ! Creation Timestamp
  1366309483,                             ! Version Timestamp
  {e68f936c-59ec-4195-b666-9df05a913b82}; ! Name of Object 1

