
OS:Version,
  {05155261-bf7e-4b42-b3ea-00c95e746d5f}, ! Handle
  0.9.3;                                  ! Version Identifier

OS:SizingPeriod:DesignDay,
  {c6d04a58-9cfc-444e-b8a3-4f2c13c0a920}, ! Handle
  Anaktuvuk Pass Ann Clg .4% Condns WB=>MDB, ! Name
  19.6,                                   ! Maximum Dry-Bulb Temperature {C}
  9.1,                                    ! Daily Dry-Bulb Temperature Range {deltaC}
  13.2,                                   ! Humidity Indicating Conditions at Maximum Dry-Bulb {BasedOnField A3}
  93677,                                  ! Barometric Pressure {Pa}
  3.6,                                    ! Wind Speed {m/s}
  40,                                     ! Wind Direction {deg}
  0,                                      ! Sky Clearness
  0,                                      ! Rain Indicator
  0,                                      ! Snow Indicator
  21,                                     ! Day of Month
  7,                                      ! Month
  SummerDesignDay,                        ! Day Type
  0,                                      ! Daylight Saving Time Indicator
  Wetbulb,                                ! Humidity Indicating Type
  ,                                       ! Humidity Indicating Day Schedule Name
  DefaultMultipliers,                     ! Dry-Bulb Temperature Range Modifier Type
  ,                                       ! Dry-Bulb Temperature Range Modifier Schedule Name
  ASHRAETau,                              ! Solar Model Indicator
  ,                                       ! Beam Solar Day Schedule Name
  ,                                       ! Diffuse Solar Day Schedule Name
  0.361,                                  ! ASHRAE Taub {dimensionless}
  2.199;                                  ! ASHRAE Taud {dimensionless}

