
OS:Version,
  {2639e600-4749-4d8d-b50c-70ec8e558da4}, ! Handle
  0.9.3;                                  ! Version Identifier

OS:SizingPeriod:DesignDay,
  {70884c77-4d31-4a60-9bd0-492124371551}, ! Handle
  Little Rock Afb Ann Htg Wind 99.6% Condns WS=>MCDB, ! Name
  8.5,                                    ! Maximum Dry-Bulb Temperature {C}
  0,                                      ! Daily Dry-Bulb Temperature Range {deltaC}
  8.5,                                    ! Humidity Indicating Conditions at Maximum Dry-Bulb {BasedOnField A3}
  100094,                                 ! Barometric Pressure {Pa}
  9.3,                                    ! Wind Speed {m/s}
  350,                                    ! Wind Direction {deg}
  0,                                      ! Sky Clearness
  0,                                      ! Rain Indicator
  0,                                      ! Snow Indicator
  21,                                     ! Day of Month
  1,                                      ! Month
  WinterDesignDay,                        ! Day Type
  0,                                      ! Daylight Saving Time Indicator
  Wetbulb,                                ! Humidity Indicating Type
  ,                                       ! Humidity Indicating Day Schedule Name
  DefaultMultipliers,                     ! Dry-Bulb Temperature Range Modifier Type
  ,                                       ! Dry-Bulb Temperature Range Modifier Schedule Name
  ASHRAEClearSky;                         ! Solar Model Indicator

OS:ComponentData,
  {0e01e261-557e-49a5-ab0d-b4aa4950d790}, ! Handle
  Component Data 1,                       ! Name
  {7aab0736-19d5-4d3a-b0de-b56f349da91c}, ! UUID
  {74e79d0c-0b24-45c9-a0e0-2ed12898d219}, ! Version UUID
  1366306233,                             ! Creation Timestamp
  1366306233,                             ! Version Timestamp
  {70884c77-4d31-4a60-9bd0-492124371551}; ! Name of Object 1

