
OS:Version,
  {45dbf678-2c06-45d9-bac3-825232ee8d10}, ! Handle
  0.9.3;                                  ! Version Identifier

OS:SizingPeriod:DesignDay,
  {f8c9b841-9b7c-4f37-aeec-7d6514ff0df0}, ! Handle
  HOUGHTON Ann Clg .4% Condns DB=>MWB,    ! Name
  29.3,                                   ! Maximum Dry-Bulb Temperature {C}
  10.5,                                   ! Daily Dry-Bulb Temperature Range {deltaC}
  21.3,                                   ! Humidity Indicating Conditions at Maximum Dry-Bulb {BasedOnField A3}
  97435,                                  ! Barometric Pressure {Pa}
  4.7,                                    ! Wind Speed {m/s}
  270,                                    ! Wind Direction {deg}
  0,                                      ! Sky Clearness
  0,                                      ! Rain Indicator
  0,                                      ! Snow Indicator
  21,                                     ! Day of Month
  7,                                      ! Month
  SummerDesignDay,                        ! Day Type
  0,                                      ! Daylight Saving Time Indicator
  Wetbulb,                                ! Humidity Indicating Type
  ,                                       ! Humidity Indicating Day Schedule Name
  DefaultMultipliers,                     ! Dry-Bulb Temperature Range Modifier Type
  ,                                       ! Dry-Bulb Temperature Range Modifier Schedule Name
  ASHRAETau,                              ! Solar Model Indicator
  ,                                       ! Beam Solar Day Schedule Name
  ,                                       ! Diffuse Solar Day Schedule Name
  0.413,                                  ! ASHRAE Taub {dimensionless}
  2.179;                                  ! ASHRAE Taud {dimensionless}

OS:ComponentData,
  {c4b3d9cc-28e8-48de-a25c-f05ec8b83c70}, ! Handle
  Component Data 1,                       ! Name
  {c9293856-956c-4325-8ac2-a01db5ce903e}, ! UUID
  {f0de082e-77e1-4255-8536-51ce3446c1a1}, ! Version UUID
  1366308029,                             ! Creation Timestamp
  1366308029,                             ! Version Timestamp
  {f8c9b841-9b7c-4f37-aeec-7d6514ff0df0}; ! Name of Object 1

