
OS:Version,
  {bc7af9ea-cfc4-4492-b8ac-bcc0b922a16b}, ! Handle
  0.9.3;                                  ! Version Identifier

OS:SizingPeriod:DesignDay,
  {6724f616-7fa1-4d7c-9c6d-d692e2ef70a7}, ! Handle
  Fort Worth Alliance Ann Htg 99.6% Condns DB, ! Name
  -5.8,                                   ! Maximum Dry-Bulb Temperature {C}
  0,                                      ! Daily Dry-Bulb Temperature Range {deltaC}
  -5.8,                                   ! Humidity Indicating Conditions at Maximum Dry-Bulb {BasedOnField A3}
  98639,                                  ! Barometric Pressure {Pa}
  3.6,                                    ! Wind Speed {m/s}
  0,                                      ! Wind Direction {deg}
  0,                                      ! Sky Clearness
  0,                                      ! Rain Indicator
  0,                                      ! Snow Indicator
  21,                                     ! Day of Month
  1,                                      ! Month
  WinterDesignDay,                        ! Day Type
  0,                                      ! Daylight Saving Time Indicator
  Wetbulb,                                ! Humidity Indicating Type
  ,                                       ! Humidity Indicating Day Schedule Name
  DefaultMultipliers,                     ! Dry-Bulb Temperature Range Modifier Type
  ,                                       ! Dry-Bulb Temperature Range Modifier Schedule Name
  ASHRAEClearSky;                         ! Solar Model Indicator

OS:ComponentData,
  {c577b81a-19aa-4e57-a2b3-625ca0a1b656}, ! Handle
  Component Data 1,                       ! Name
  {6f94e44f-cfd3-4b07-a0d7-70ebd9d88f64}, ! UUID
  {b3bf0b4a-b488-4794-8938-3cd7349a96b5}, ! Version UUID
  1366310696,                             ! Creation Timestamp
  1366310696,                             ! Version Timestamp
  {6724f616-7fa1-4d7c-9c6d-d692e2ef70a7}; ! Name of Object 1

