
OS:Version,
  {fdd86495-44b0-42e4-b41e-1fe0584547f9}, ! Handle
  0.9.3;                                  ! Version Identifier

OS:SizingPeriod:DesignDay,
  {6a304765-d009-4ff4-8db1-855c5f4eaac9}, ! Handle
  Lexington Ann Htg 99.6% Condns DB,      ! Name
  -14.4,                                  ! Maximum Dry-Bulb Temperature {C}
  0,                                      ! Daily Dry-Bulb Temperature Range {deltaC}
  -14.4,                                  ! Humidity Indicating Conditions at Maximum Dry-Bulb {BasedOnField A3}
  97761,                                  ! Barometric Pressure {Pa}
  3.5,                                    ! Wind Speed {m/s}
  290,                                    ! Wind Direction {deg}
  0,                                      ! Sky Clearness
  0,                                      ! Rain Indicator
  0,                                      ! Snow Indicator
  21,                                     ! Day of Month
  1,                                      ! Month
  WinterDesignDay,                        ! Day Type
  0,                                      ! Daylight Saving Time Indicator
  Wetbulb,                                ! Humidity Indicating Type
  ,                                       ! Humidity Indicating Day Schedule Name
  DefaultMultipliers,                     ! Dry-Bulb Temperature Range Modifier Type
  ,                                       ! Dry-Bulb Temperature Range Modifier Schedule Name
  ASHRAEClearSky;                         ! Solar Model Indicator

OS:ComponentData,
  {125ab344-54f3-45a6-9fc6-af1617a22937}, ! Handle
  Component Data 1,                       ! Name
  {776f93a4-1bc2-4cc5-ba99-f938ac78e28b}, ! UUID
  {3334b2fd-3425-48de-8415-4a35cc71a9bf}, ! Version UUID
  1366307646,                             ! Creation Timestamp
  1366307646,                             ! Version Timestamp
  {6a304765-d009-4ff4-8db1-855c5f4eaac9}; ! Name of Object 1

