
OS:Version,
  {0e72087e-ff97-49a8-a0f0-4688aa584a39}, ! Handle
  0.9.3;                                  ! Version Identifier

OS:SizingPeriod:DesignDay,
  {b705097e-70a4-4edc-b9c5-332a144a3fa0}, ! Handle
  Billings Ann Clg 1% Condns WB=>MDB,     ! Name
  28.8,                                   ! Maximum Dry-Bulb Temperature {C}
  14.5,                                   ! Daily Dry-Bulb Temperature Range {deltaC}
  18.2,                                   ! Humidity Indicating Conditions at Maximum Dry-Bulb {BasedOnField A3}
  88919,                                  ! Barometric Pressure {Pa}
  4.2,                                    ! Wind Speed {m/s}
  50,                                     ! Wind Direction {deg}
  0,                                      ! Sky Clearness
  0,                                      ! Rain Indicator
  0,                                      ! Snow Indicator
  21,                                     ! Day of Month
  7,                                      ! Month
  SummerDesignDay,                        ! Day Type
  0,                                      ! Daylight Saving Time Indicator
  Wetbulb,                                ! Humidity Indicating Type
  ,                                       ! Humidity Indicating Day Schedule Name
  DefaultMultipliers,                     ! Dry-Bulb Temperature Range Modifier Type
  ,                                       ! Dry-Bulb Temperature Range Modifier Schedule Name
  ASHRAETau,                              ! Solar Model Indicator
  ,                                       ! Beam Solar Day Schedule Name
  ,                                       ! Diffuse Solar Day Schedule Name
  0.405,                                  ! ASHRAE Taub {dimensionless}
  2.084;                                  ! ASHRAE Taud {dimensionless}

OS:ComponentData,
  {32ab5501-9692-4eb0-b6d8-efd6584de8b3}, ! Handle
  Component Data 1,                       ! Name
  {80dc7663-c07b-486c-9ce0-91a362ea0574}, ! UUID
  {5f45d1a3-2ae6-4c00-8c5e-d7b4461917a8}, ! Version UUID
  1366308699,                             ! Creation Timestamp
  1366308699,                             ! Version Timestamp
  {b705097e-70a4-4edc-b9c5-332a144a3fa0}; ! Name of Object 1

