
OS:Version,
  {b7f2c8e6-8395-469d-8a93-ac3be04e2f17}, ! Handle
  0.9.3;                                  ! Version Identifier

OS:SizingPeriod:DesignDay,
  {ea225a79-9073-4cad-a9fd-55c46e4ca46c}, ! Handle
  Elko Municipal Arpt Ann Clg 1% Condns DP=>MDB, ! Name
  19.1,                                   ! Maximum Dry-Bulb Temperature {C}
  21.8,                                   ! Daily Dry-Bulb Temperature Range {deltaC}
  12,                                     ! Humidity Indicating Conditions at Maximum Dry-Bulb {BasedOnField A3}
  84059,                                  ! Barometric Pressure {Pa}
  4.1,                                    ! Wind Speed {m/s}
  240,                                    ! Wind Direction {deg}
  0,                                      ! Sky Clearness
  0,                                      ! Rain Indicator
  0,                                      ! Snow Indicator
  21,                                     ! Day of Month
  7,                                      ! Month
  SummerDesignDay,                        ! Day Type
  0,                                      ! Daylight Saving Time Indicator
  Dewpoint,                               ! Humidity Indicating Type
  ,                                       ! Humidity Indicating Day Schedule Name
  DefaultMultipliers,                     ! Dry-Bulb Temperature Range Modifier Type
  ,                                       ! Dry-Bulb Temperature Range Modifier Schedule Name
  ASHRAETau,                              ! Solar Model Indicator
  ,                                       ! Beam Solar Day Schedule Name
  ,                                       ! Diffuse Solar Day Schedule Name
  0.446,                                  ! ASHRAE Taub {dimensionless}
  1.888;                                  ! ASHRAE Taud {dimensionless}

OS:ComponentData,
  {5afbcf62-a925-42a6-bee0-addada0e00d1}, ! Handle
  Component Data 1,                       ! Name
  {4750fe88-4c7b-4f25-b11f-28dc05b87d1e}, ! UUID
  {41308aa4-68fb-415d-9b79-cf16421b475a}, ! Version UUID
  1366309468,                             ! Creation Timestamp
  1366309468,                             ! Version Timestamp
  {ea225a79-9073-4cad-a9fd-55c46e4ca46c}; ! Name of Object 1

