
OS:Version,
  {0cfce0f9-0885-409c-93b1-a350644511f7}, ! Handle
  0.9.3;                                  ! Version Identifier

OS:SizingPeriod:DesignDay,
  {81bde0d8-5c97-4817-93eb-102037fd9839}, ! Handle
  Kansas City Downtown Ap Ann Clg 2% Condns DP=>MDB, ! Name
  28.8,                                   ! Maximum Dry-Bulb Temperature {C}
  9.5,                                    ! Daily Dry-Bulb Temperature Range {deltaC}
  23,                                     ! Humidity Indicating Conditions at Maximum Dry-Bulb {BasedOnField A3}
  98639,                                  ! Barometric Pressure {Pa}
  5.4,                                    ! Wind Speed {m/s}
  210,                                    ! Wind Direction {deg}
  0,                                      ! Sky Clearness
  0,                                      ! Rain Indicator
  0,                                      ! Snow Indicator
  21,                                     ! Day of Month
  7,                                      ! Month
  SummerDesignDay,                        ! Day Type
  0,                                      ! Daylight Saving Time Indicator
  Dewpoint,                               ! Humidity Indicating Type
  ,                                       ! Humidity Indicating Day Schedule Name
  DefaultMultipliers,                     ! Dry-Bulb Temperature Range Modifier Type
  ,                                       ! Dry-Bulb Temperature Range Modifier Schedule Name
  ASHRAETau,                              ! Solar Model Indicator
  ,                                       ! Beam Solar Day Schedule Name
  ,                                       ! Diffuse Solar Day Schedule Name
  0.445,                                  ! ASHRAE Taub {dimensionless}
  2.122;                                  ! ASHRAE Taud {dimensionless}

OS:ComponentData,
  {d8036d09-bdbf-4084-b31e-27bd7124ef02}, ! Handle
  Component Data 1,                       ! Name
  {8eec2ff3-97f8-4f40-8d2a-0d0825ddbb03}, ! UUID
  {e58646d4-3e2f-4acb-8d5d-afb9d858bbec}, ! Version UUID
  1366308528,                             ! Creation Timestamp
  1366308528,                             ! Version Timestamp
  {81bde0d8-5c97-4817-93eb-102037fd9839}; ! Name of Object 1

