
OS:Version,
  {a5ec9a92-50fc-44c1-8797-4c0bb5b98bb1}, ! Handle
  0.9.3;                                  ! Version Identifier

OS:SizingPeriod:DesignDay,
  {ca52ad49-74d9-4fd8-b871-c999d2dd6256}, ! Handle
  Dalhart Municipal Ap Ann Clg 1% Condns DB=>MWB, ! Name
  35,                                     ! Maximum Dry-Bulb Temperature {C}
  15.2,                                   ! Daily Dry-Bulb Temperature Range {deltaC}
  18.5,                                   ! Humidity Indicating Conditions at Maximum Dry-Bulb {BasedOnField A3}
  87545,                                  ! Barometric Pressure {Pa}
  6.5,                                    ! Wind Speed {m/s}
  180,                                    ! Wind Direction {deg}
  0,                                      ! Sky Clearness
  0,                                      ! Rain Indicator
  0,                                      ! Snow Indicator
  21,                                     ! Day of Month
  7,                                      ! Month
  SummerDesignDay,                        ! Day Type
  0,                                      ! Daylight Saving Time Indicator
  Wetbulb,                                ! Humidity Indicating Type
  ,                                       ! Humidity Indicating Day Schedule Name
  DefaultMultipliers,                     ! Dry-Bulb Temperature Range Modifier Type
  ,                                       ! Dry-Bulb Temperature Range Modifier Schedule Name
  ASHRAETau,                              ! Solar Model Indicator
  ,                                       ! Beam Solar Day Schedule Name
  ,                                       ! Diffuse Solar Day Schedule Name
  0.401,                                  ! ASHRAE Taub {dimensionless}
  2.151;                                  ! ASHRAE Taud {dimensionless}

OS:ComponentData,
  {7faac40e-30b2-4386-bc57-c8c9aacbf95b}, ! Handle
  Component Data 1,                       ! Name
  {fed7083f-f63d-4d14-b5aa-5b9a6405e13a}, ! UUID
  {75022b92-22b3-47eb-9762-e9f0da2a36ae}, ! Version UUID
  1366310650,                             ! Creation Timestamp
  1366310650,                             ! Version Timestamp
  {ca52ad49-74d9-4fd8-b871-c999d2dd6256}; ! Name of Object 1

