
OS:Version,
  {0645ead2-9b51-443e-8de0-7c35bfab97b2}, ! Handle
  0.9.3;                                  ! Version Identifier

OS:SizingPeriod:DesignDay,
  {0b5891c6-e117-4ec8-b68b-5adc07ba1587}, ! Handle
  Jacksonville Intl Arpt Ann Clg 2% Condns WB=>MDB, ! Name
  30.6,                                   ! Maximum Dry-Bulb Temperature {C}
  10,                                     ! Daily Dry-Bulb Temperature Range {deltaC}
  25.8,                                   ! Humidity Indicating Conditions at Maximum Dry-Bulb {BasedOnField A3}
  101229,                                 ! Barometric Pressure {Pa}
  3.6,                                    ! Wind Speed {m/s}
  260,                                    ! Wind Direction {deg}
  0,                                      ! Sky Clearness
  0,                                      ! Rain Indicator
  0,                                      ! Snow Indicator
  21,                                     ! Day of Month
  7,                                      ! Month
  SummerDesignDay,                        ! Day Type
  0,                                      ! Daylight Saving Time Indicator
  Wetbulb,                                ! Humidity Indicating Type
  ,                                       ! Humidity Indicating Day Schedule Name
  DefaultMultipliers,                     ! Dry-Bulb Temperature Range Modifier Type
  ,                                       ! Dry-Bulb Temperature Range Modifier Schedule Name
  ASHRAETau,                              ! Solar Model Indicator
  ,                                       ! Beam Solar Day Schedule Name
  ,                                       ! Diffuse Solar Day Schedule Name
  0.541,                                  ! ASHRAE Taub {dimensionless}
  1.863;                                  ! ASHRAE Taud {dimensionless}

OS:ComponentData,
  {8b32dfa0-0a57-40cd-acd2-0c1605412e2c}, ! Handle
  Component Data 1,                       ! Name
  {e33bdedf-a87b-41de-9065-c30e3508a375}, ! UUID
  {f69aad25-f874-421f-83ed-a286ccb92d94}, ! Version UUID
  1366306823,                             ! Creation Timestamp
  1366306823,                             ! Version Timestamp
  {0b5891c6-e117-4ec8-b68b-5adc07ba1587}; ! Name of Object 1

