
OS:Version,
  {3eeaae01-4502-4d8e-a183-158318b47cd6}, ! Handle
  0.9.3;                                  ! Version Identifier

OS:SizingPeriod:DesignDay,
  {181f1c05-efc2-44f3-8f40-038930f5ecc2}, ! Handle
  Albuquerque Ann Clg .4% Condns Enth=>MDB, ! Name
  27.7,                                   ! Maximum Dry-Bulb Temperature {C}
  13.5,                                   ! Daily Dry-Bulb Temperature Range {deltaC}
  59000,                                  ! Humidity Indicating Conditions at Maximum Dry-Bulb {BasedOnField A3}
  83318,                                  ! Barometric Pressure {Pa}
  4.4,                                    ! Wind Speed {m/s}
  220,                                    ! Wind Direction {deg}
  0,                                      ! Sky Clearness
  0,                                      ! Rain Indicator
  0,                                      ! Snow Indicator
  21,                                     ! Day of Month
  7,                                      ! Month
  SummerDesignDay,                        ! Day Type
  0,                                      ! Daylight Saving Time Indicator
  Enthalpy,                               ! Humidity Indicating Type
  ,                                       ! Humidity Indicating Day Schedule Name
  DefaultMultipliers,                     ! Dry-Bulb Temperature Range Modifier Type
  ,                                       ! Dry-Bulb Temperature Range Modifier Schedule Name
  ASHRAETau,                              ! Solar Model Indicator
  ,                                       ! Beam Solar Day Schedule Name
  ,                                       ! Diffuse Solar Day Schedule Name
  0.463,                                  ! ASHRAE Taub {dimensionless}
  1.887;                                  ! ASHRAE Taud {dimensionless}

OS:ComponentData,
  {1f2fb407-12b2-4495-950b-ff3c24d45e83}, ! Handle
  Component Data 1,                       ! Name
  {573ab28b-f3f5-4e93-a7da-6ec0947b68ef}, ! UUID
  {ffef7a1d-4236-42da-b413-f298c41b93d7}, ! Version UUID
  1366309365,                             ! Creation Timestamp
  1366309365,                             ! Version Timestamp
  {181f1c05-efc2-44f3-8f40-038930f5ecc2}; ! Name of Object 1

