
OS:Version,
  {f320f11d-9d77-40cc-8f82-f47cf5457bea}, ! Handle
  0.9.3;                                  ! Version Identifier

OS:SizingPeriod:DesignDay,
  {3528d591-f4ed-49ad-9da4-6abe9d748f08}, ! Handle
  Jacksonville Craig Ann Clg 1% Condns DB=>MWB, ! Name
  33,                                     ! Maximum Dry-Bulb Temperature {C}
  9.5,                                    ! Daily Dry-Bulb Temperature Range {deltaC}
  25,                                     ! Humidity Indicating Conditions at Maximum Dry-Bulb {BasedOnField A3}
  101181,                                 ! Barometric Pressure {Pa}
  4.2,                                    ! Wind Speed {m/s}
  240,                                    ! Wind Direction {deg}
  0,                                      ! Sky Clearness
  0,                                      ! Rain Indicator
  0,                                      ! Snow Indicator
  21,                                     ! Day of Month
  7,                                      ! Month
  SummerDesignDay,                        ! Day Type
  0,                                      ! Daylight Saving Time Indicator
  Wetbulb,                                ! Humidity Indicating Type
  ,                                       ! Humidity Indicating Day Schedule Name
  DefaultMultipliers,                     ! Dry-Bulb Temperature Range Modifier Type
  ,                                       ! Dry-Bulb Temperature Range Modifier Schedule Name
  ASHRAETau,                              ! Solar Model Indicator
  ,                                       ! Beam Solar Day Schedule Name
  ,                                       ! Diffuse Solar Day Schedule Name
  0.538,                                  ! ASHRAE Taub {dimensionless}
  1.872;                                  ! ASHRAE Taud {dimensionless}

OS:ComponentData,
  {04346052-8e6b-4781-94b3-70ad8f9e1bbb}, ! Handle
  Component Data 1,                       ! Name
  {187ee986-1772-4138-91b3-41c5ae333343}, ! UUID
  {4238eec7-b2aa-4a08-b2c0-4575f1429670}, ! Version UUID
  1366306814,                             ! Creation Timestamp
  1366306814,                             ! Version Timestamp
  {3528d591-f4ed-49ad-9da4-6abe9d748f08}; ! Name of Object 1

