
OS:Version,
  {71b707cb-7ae9-4e58-8224-1a60f5509ba1}, ! Handle
  0.9.3;                                  ! Version Identifier

OS:SizingPeriod:DesignDay,
  {56d2a892-f460-4b99-8da0-6dffe7333e6d}, ! Handle
  Carroll Ann Clg 1% Condns WB=>MDB,      ! Name
  31.2,                                   ! Maximum Dry-Bulb Temperature {C}
  11.4,                                   ! Daily Dry-Bulb Temperature Range {deltaC}
  26.1,                                   ! Humidity Indicating Conditions at Maximum Dry-Bulb {BasedOnField A3}
  96900,                                  ! Barometric Pressure {Pa}
  5.7,                                    ! Wind Speed {m/s}
  190,                                    ! Wind Direction {deg}
  0,                                      ! Sky Clearness
  0,                                      ! Rain Indicator
  0,                                      ! Snow Indicator
  21,                                     ! Day of Month
  7,                                      ! Month
  SummerDesignDay,                        ! Day Type
  0,                                      ! Daylight Saving Time Indicator
  Wetbulb,                                ! Humidity Indicating Type
  ,                                       ! Humidity Indicating Day Schedule Name
  DefaultMultipliers,                     ! Dry-Bulb Temperature Range Modifier Type
  ,                                       ! Dry-Bulb Temperature Range Modifier Schedule Name
  ASHRAETau,                              ! Solar Model Indicator
  ,                                       ! Beam Solar Day Schedule Name
  ,                                       ! Diffuse Solar Day Schedule Name
  0.409,                                  ! ASHRAE Taub {dimensionless}
  2.221;                                  ! ASHRAE Taud {dimensionless}

OS:ComponentData,
  {512ee466-7510-4d9c-b0bd-6fce328eb217}, ! Handle
  Component Data 1,                       ! Name
  {8c6d1d0e-b3cb-4277-8432-8e16c2858936}, ! UUID
  {3adab9d5-f424-4fc4-9a8c-b398755d3377}, ! Version UUID
  1366307146,                             ! Creation Timestamp
  1366307146,                             ! Version Timestamp
  {56d2a892-f460-4b99-8da0-6dffe7333e6d}; ! Name of Object 1

