
OS:Version,
  {f288e3dd-7e20-4ba1-ad8c-6f3448b6a44f}, ! Handle
  0.9.3;                                  ! Version Identifier

OS:SizingPeriod:DesignDay,
  {7cc17d64-6b70-4035-b51c-b60e914467c9}, ! Handle
  BRIDGEPORT Ann Hum_n 99% Condns DP=>MCDB, ! Name
  -7.7,                                   ! Maximum Dry-Bulb Temperature {C}
  0,                                      ! Daily Dry-Bulb Temperature Range {deltaC}
  -19.5,                                  ! Humidity Indicating Conditions at Maximum Dry-Bulb {BasedOnField A3}
  101301,                                 ! Barometric Pressure {Pa}
  5.2,                                    ! Wind Speed {m/s}
  350,                                    ! Wind Direction {deg}
  0,                                      ! Sky Clearness
  0,                                      ! Rain Indicator
  0,                                      ! Snow Indicator
  21,                                     ! Day of Month
  1,                                      ! Month
  WinterDesignDay,                        ! Day Type
  0,                                      ! Daylight Saving Time Indicator
  Dewpoint,                               ! Humidity Indicating Type
  ,                                       ! Humidity Indicating Day Schedule Name
  DefaultMultipliers,                     ! Dry-Bulb Temperature Range Modifier Type
  ,                                       ! Dry-Bulb Temperature Range Modifier Schedule Name
  ASHRAEClearSky;                         ! Solar Model Indicator

OS:ComponentData,
  {568b626c-4416-44f8-8047-797bce82bee2}, ! Handle
  Component Data 1,                       ! Name
  {65a99a53-4876-4568-aec5-39f574cd7342}, ! UUID
  {32857631-faea-4074-9bd8-c5a9a0914e92}, ! Version UUID
  1366306749,                             ! Creation Timestamp
  1366306749,                             ! Version Timestamp
  {7cc17d64-6b70-4035-b51c-b60e914467c9}; ! Name of Object 1

