
OS:Version,
  {4be29548-6ec4-45ee-ac4f-f3050374c037}, ! Handle
  0.9.3;                                  ! Version Identifier

OS:SizingPeriod:DesignDay,
  {cf96af4f-594c-4baf-b899-5399f68d5c36}, ! Handle
  Lafayette Purdue Univ Ap Ann Hum_n 99% Condns DP=>MCDB, ! Name
  -14.7,                                  ! Maximum Dry-Bulb Temperature {C}
  0,                                      ! Daily Dry-Bulb Temperature Range {deltaC}
  -20,                                    ! Humidity Indicating Conditions at Maximum Dry-Bulb {BasedOnField A3}
  99146,                                  ! Barometric Pressure {Pa}
  4.3,                                    ! Wind Speed {m/s}
  280,                                    ! Wind Direction {deg}
  0,                                      ! Sky Clearness
  0,                                      ! Rain Indicator
  0,                                      ! Snow Indicator
  21,                                     ! Day of Month
  1,                                      ! Month
  WinterDesignDay,                        ! Day Type
  0,                                      ! Daylight Saving Time Indicator
  Dewpoint,                               ! Humidity Indicating Type
  ,                                       ! Humidity Indicating Day Schedule Name
  DefaultMultipliers,                     ! Dry-Bulb Temperature Range Modifier Type
  ,                                       ! Dry-Bulb Temperature Range Modifier Schedule Name
  ASHRAEClearSky;                         ! Solar Model Indicator

OS:ComponentData,
  {e1a1c8b8-7365-4c56-9b28-8bb244dbf95a}, ! Handle
  Component Data 1,                       ! Name
  {99879077-20db-48aa-9a22-919c16fcdc93}, ! UUID
  {ff1a7a3e-64ea-4da3-9097-f8885db7b8b3}, ! Version UUID
  1366307471,                             ! Creation Timestamp
  1366307471,                             ! Version Timestamp
  {cf96af4f-594c-4baf-b899-5399f68d5c36}; ! Name of Object 1

