
OS:Version,
  {e1ce08fe-e5a8-4e16-9c1e-f6c0423ed44e}, ! Handle
  0.9.3;                                  ! Version Identifier

OS:SizingPeriod:DesignDay,
  {ab157fd5-a942-444d-bdf9-e87c20e87033}, ! Handle
  Estherville Muni Ann Clg 2% Condns Enth=>MDB, ! Name
  27.4,                                   ! Maximum Dry-Bulb Temperature {C}
  11,                                     ! Daily Dry-Bulb Temperature Range {deltaC}
  72100,                                  ! Humidity Indicating Conditions at Maximum Dry-Bulb {BasedOnField A3}
  96600,                                  ! Barometric Pressure {Pa}
  7,                                      ! Wind Speed {m/s}
  180,                                    ! Wind Direction {deg}
  0,                                      ! Sky Clearness
  0,                                      ! Rain Indicator
  0,                                      ! Snow Indicator
  21,                                     ! Day of Month
  7,                                      ! Month
  SummerDesignDay,                        ! Day Type
  0,                                      ! Daylight Saving Time Indicator
  Enthalpy,                               ! Humidity Indicating Type
  ,                                       ! Humidity Indicating Day Schedule Name
  DefaultMultipliers,                     ! Dry-Bulb Temperature Range Modifier Type
  ,                                       ! Dry-Bulb Temperature Range Modifier Schedule Name
  ASHRAETau,                              ! Solar Model Indicator
  ,                                       ! Beam Solar Day Schedule Name
  ,                                       ! Diffuse Solar Day Schedule Name
  0.401,                                  ! ASHRAE Taub {dimensionless}
  2.243;                                  ! ASHRAE Taud {dimensionless}

OS:ComponentData,
  {2e73b762-a4ab-4ae8-a5cc-89dbcf5462cf}, ! Handle
  Component Data 1,                       ! Name
  {9503ea26-2800-47f0-87be-912bdc450d0c}, ! UUID
  {f93bb06b-a2e0-4416-8349-0598cbde2bd0}, ! Version UUID
  1366307190,                             ! Creation Timestamp
  1366307190,                             ! Version Timestamp
  {ab157fd5-a942-444d-bdf9-e87c20e87033}; ! Name of Object 1

