
OS:Version,
  {ccbbc915-dbda-4ad6-ac58-9edc0f1b3878}, ! Handle
  0.9.3;                                  ! Version Identifier

OS:SizingPeriod:DesignDay,
  {4469be08-8f18-4899-9abc-9cfefe349fcc}, ! Handle
  Joplin Municipal Ap Ann Clg 1% Condns WB=>MDB, ! Name
  31.9,                                   ! Maximum Dry-Bulb Temperature {C}
  10.8,                                   ! Daily Dry-Bulb Temperature Range {deltaC}
  25.3,                                   ! Humidity Indicating Conditions at Maximum Dry-Bulb {BasedOnField A3}
  97808,                                  ! Barometric Pressure {Pa}
  4.8,                                    ! Wind Speed {m/s}
  210,                                    ! Wind Direction {deg}
  0,                                      ! Sky Clearness
  0,                                      ! Rain Indicator
  0,                                      ! Snow Indicator
  21,                                     ! Day of Month
  7,                                      ! Month
  SummerDesignDay,                        ! Day Type
  0,                                      ! Daylight Saving Time Indicator
  Wetbulb,                                ! Humidity Indicating Type
  ,                                       ! Humidity Indicating Day Schedule Name
  DefaultMultipliers,                     ! Dry-Bulb Temperature Range Modifier Type
  ,                                       ! Dry-Bulb Temperature Range Modifier Schedule Name
  ASHRAETau,                              ! Solar Model Indicator
  ,                                       ! Beam Solar Day Schedule Name
  ,                                       ! Diffuse Solar Day Schedule Name
  0.446,                                  ! ASHRAE Taub {dimensionless}
  2.122;                                  ! ASHRAE Taud {dimensionless}

OS:ComponentData,
  {af156052-31e7-46b1-807b-a27083bd2700}, ! Handle
  Component Data 1,                       ! Name
  {4850335a-b7f5-428e-bd3a-04f25976bb0f}, ! UUID
  {e3e415a5-ccb4-42aa-adeb-b209fdf3a54f}, ! Version UUID
  1366308508,                             ! Creation Timestamp
  1366308508,                             ! Version Timestamp
  {4469be08-8f18-4899-9abc-9cfefe349fcc}; ! Name of Object 1

