
OS:Version,
  {5126a8fd-942e-46a8-ab0b-4c3699dba227}, ! Handle
  0.9.3;                                  ! Version Identifier

OS:SizingPeriod:DesignDay,
  {25df0975-3369-499e-ae06-81a0a69432ff}, ! Handle
  Bradford Regional Ap Ann Hum_n 99% Condns DP=>MCDB, ! Name
  -15.1,                                  ! Maximum Dry-Bulb Temperature {C}
  0,                                      ! Daily Dry-Bulb Temperature Range {deltaC}
  -20.9,                                  ! Humidity Indicating Conditions at Maximum Dry-Bulb {BasedOnField A3}
  93813,                                  ! Barometric Pressure {Pa}
  3.1,                                    ! Wind Speed {m/s}
  270,                                    ! Wind Direction {deg}
  0,                                      ! Sky Clearness
  0,                                      ! Rain Indicator
  0,                                      ! Snow Indicator
  21,                                     ! Day of Month
  1,                                      ! Month
  WinterDesignDay,                        ! Day Type
  0,                                      ! Daylight Saving Time Indicator
  Dewpoint,                               ! Humidity Indicating Type
  ,                                       ! Humidity Indicating Day Schedule Name
  DefaultMultipliers,                     ! Dry-Bulb Temperature Range Modifier Type
  ,                                       ! Dry-Bulb Temperature Range Modifier Schedule Name
  ASHRAEClearSky;                         ! Solar Model Indicator

OS:ComponentData,
  {a81bebe7-39fe-45c6-b715-bed808cd2e34}, ! Handle
  Component Data 1,                       ! Name
  {b2e95c3b-eb4f-4550-9ad2-e80c5e6f20c3}, ! UUID
  {b142b50b-cd41-428f-8f6b-7f36b636fe51}, ! Version UUID
  1366310149,                             ! Creation Timestamp
  1366310149,                             ! Version Timestamp
  {25df0975-3369-499e-ae06-81a0a69432ff}; ! Name of Object 1

