
OS:Version,
  {c839b345-6b45-474a-bb56-009c355c811d}, ! Handle
  0.9.3;                                  ! Version Identifier

OS:SizingPeriod:DesignDay,
  {51873139-13bb-4a1a-ad5a-92fde80d5f58}, ! Handle
  CORPUS_CHRISTI Ann Htg Wind 99.6% Condns WS=>MCDB, ! Name
  20.3,                                   ! Maximum Dry-Bulb Temperature {C}
  0,                                      ! Daily Dry-Bulb Temperature Range {deltaC}
  20.3,                                   ! Humidity Indicating Conditions at Maximum Dry-Bulb {BasedOnField A3}
  101169,                                 ! Barometric Pressure {Pa}
  13.4,                                   ! Wind Speed {m/s}
  350,                                    ! Wind Direction {deg}
  0,                                      ! Sky Clearness
  0,                                      ! Rain Indicator
  0,                                      ! Snow Indicator
  21,                                     ! Day of Month
  1,                                      ! Month
  WinterDesignDay,                        ! Day Type
  0,                                      ! Daylight Saving Time Indicator
  Wetbulb,                                ! Humidity Indicating Type
  ,                                       ! Humidity Indicating Day Schedule Name
  DefaultMultipliers,                     ! Dry-Bulb Temperature Range Modifier Type
  ,                                       ! Dry-Bulb Temperature Range Modifier Schedule Name
  ASHRAEClearSky;                         ! Solar Model Indicator

OS:ComponentData,
  {9fb864dc-03f6-424c-914d-0946a157d99f}, ! Handle
  Component Data 1,                       ! Name
  {74ce2d42-2fc9-4bf4-84bc-3a2b6f138ee7}, ! UUID
  {54372f3f-7662-439a-be5e-a601bf7728aa}, ! Version UUID
  1366310621,                             ! Creation Timestamp
  1366310621,                             ! Version Timestamp
  {51873139-13bb-4a1a-ad5a-92fde80d5f58}; ! Name of Object 1

