
OS:Version,
  {cc41c5f4-cea5-414e-8d16-e4f9a1329c3a}, ! Handle
  0.9.3;                                  ! Version Identifier

OS:SizingPeriod:DesignDay,
  {b80ad5d9-2daa-49d6-af3e-5424943d1b09}, ! Handle
  Bethel Ann Htg Wind 99% Condns WS=>MCDB, ! Name
  -11.8,                                  ! Maximum Dry-Bulb Temperature {C}
  0,                                      ! Daily Dry-Bulb Temperature Range {deltaC}
  -11.8,                                  ! Humidity Indicating Conditions at Maximum Dry-Bulb {BasedOnField A3}
  100774,                                 ! Barometric Pressure {Pa}
  15.3,                                   ! Wind Speed {m/s}
  20,                                     ! Wind Direction {deg}
  0,                                      ! Sky Clearness
  0,                                      ! Rain Indicator
  0,                                      ! Snow Indicator
  21,                                     ! Day of Month
  1,                                      ! Month
  WinterDesignDay,                        ! Day Type
  0,                                      ! Daylight Saving Time Indicator
  Wetbulb,                                ! Humidity Indicating Type
  ,                                       ! Humidity Indicating Day Schedule Name
  DefaultMultipliers,                     ! Dry-Bulb Temperature Range Modifier Type
  ,                                       ! Dry-Bulb Temperature Range Modifier Schedule Name
  ASHRAEClearSky;                         ! Solar Model Indicator

OS:ComponentData,
  {379722c6-db89-4f93-bfd5-833d80ddcda6}, ! Handle
  Component Data 1,                       ! Name
  {73c60b72-8b39-4cf8-9ba5-e8d7ebdf3905}, ! UUID
  {d7d20b0d-9bba-4378-b8f3-aa5dfdd9d7a2}, ! Version UUID
  1366304750,                             ! Creation Timestamp
  1366304750,                             ! Version Timestamp
  {b80ad5d9-2daa-49d6-af3e-5424943d1b09}; ! Name of Object 1

