
OS:Version,
  {7a31ddd2-a27c-490e-a382-d0ac67f799a7}, ! Handle
  0.9.3;                                  ! Version Identifier

OS:SizingPeriod:DesignDay,
  {d4fe7dab-e970-44ac-8097-3323958a1f96}, ! Handle
  COLUMBUS Ann Clg 1% Condns WB=>MDB,     ! Name
  31.2,                                   ! Maximum Dry-Bulb Temperature {C}
  10.1,                                   ! Daily Dry-Bulb Temperature Range {deltaC}
  25.3,                                   ! Humidity Indicating Conditions at Maximum Dry-Bulb {BasedOnField A3}
  99702,                                  ! Barometric Pressure {Pa}
  3.7,                                    ! Wind Speed {m/s}
  270,                                    ! Wind Direction {deg}
  0,                                      ! Sky Clearness
  0,                                      ! Rain Indicator
  0,                                      ! Snow Indicator
  21,                                     ! Day of Month
  7,                                      ! Month
  SummerDesignDay,                        ! Day Type
  0,                                      ! Daylight Saving Time Indicator
  Wetbulb,                                ! Humidity Indicating Type
  ,                                       ! Humidity Indicating Day Schedule Name
  DefaultMultipliers,                     ! Dry-Bulb Temperature Range Modifier Type
  ,                                       ! Dry-Bulb Temperature Range Modifier Schedule Name
  ASHRAETau,                              ! Solar Model Indicator
  ,                                       ! Beam Solar Day Schedule Name
  ,                                       ! Diffuse Solar Day Schedule Name
  0.564,                                  ! ASHRAE Taub {dimensionless}
  1.778;                                  ! ASHRAE Taud {dimensionless}

OS:ComponentData,
  {f79ccd7e-90fc-42bb-a383-0172398dec78}, ! Handle
  Component Data 1,                       ! Name
  {311a71da-deaa-4bc1-b07e-934bc55addd3}, ! UUID
  {4a3cdcc1-7f48-4319-9a13-bfdd37ee009d}, ! Version UUID
  1366307001,                             ! Creation Timestamp
  1366307001,                             ! Version Timestamp
  {d4fe7dab-e970-44ac-8097-3323958a1f96}; ! Name of Object 1

