
OS:Version,
  {7b1307c2-d5aa-43a4-9ef8-0d5cbdc5d04d}, ! Handle
  0.9.3;                                  ! Version Identifier

OS:SizingPeriod:DesignDay,
  {e15576e5-c539-4e31-a0d7-f9d16f9484af}, ! Handle
  Hays Muni  Awos Ann Htg Wind 99% Condns WS=>MCDB, ! Name
  2.6,                                    ! Maximum Dry-Bulb Temperature {C}
  0,                                      ! Daily Dry-Bulb Temperature Range {deltaC}
  2.6,                                    ! Humidity Indicating Conditions at Maximum Dry-Bulb {BasedOnField A3}
  94220,                                  ! Barometric Pressure {Pa}
  12.7,                                   ! Wind Speed {m/s}
  330,                                    ! Wind Direction {deg}
  0,                                      ! Sky Clearness
  0,                                      ! Rain Indicator
  0,                                      ! Snow Indicator
  21,                                     ! Day of Month
  1,                                      ! Month
  WinterDesignDay,                        ! Day Type
  0,                                      ! Daylight Saving Time Indicator
  Wetbulb,                                ! Humidity Indicating Type
  ,                                       ! Humidity Indicating Day Schedule Name
  DefaultMultipliers,                     ! Dry-Bulb Temperature Range Modifier Type
  ,                                       ! Dry-Bulb Temperature Range Modifier Schedule Name
  ASHRAEClearSky;                         ! Solar Model Indicator

