
OS:Version,
  {a546faa5-6208-4b2b-81da-4f3c7d3cdc63}, ! Handle
  0.9.3;                                  ! Version Identifier

OS:SizingPeriod:DesignDay,
  {11fb456a-83dd-4f74-ac45-65e0f3d577ee}, ! Handle
  Atlanta Hartsfield Intl Ap Ann Htg 99% Condns DB, ! Name
  -3.5,                                   ! Maximum Dry-Bulb Temperature {C}
  0,                                      ! Daily Dry-Bulb Temperature Range {deltaC}
  -3.5,                                   ! Humidity Indicating Conditions at Maximum Dry-Bulb {BasedOnField A3}
  97679,                                  ! Barometric Pressure {Pa}
  5.3,                                    ! Wind Speed {m/s}
  320,                                    ! Wind Direction {deg}
  0,                                      ! Sky Clearness
  0,                                      ! Rain Indicator
  0,                                      ! Snow Indicator
  21,                                     ! Day of Month
  1,                                      ! Month
  WinterDesignDay,                        ! Day Type
  0,                                      ! Daylight Saving Time Indicator
  Wetbulb,                                ! Humidity Indicating Type
  ,                                       ! Humidity Indicating Day Schedule Name
  DefaultMultipliers,                     ! Dry-Bulb Temperature Range Modifier Type
  ,                                       ! Dry-Bulb Temperature Range Modifier Schedule Name
  ASHRAEClearSky;                         ! Solar Model Indicator

OS:ComponentData,
  {fb86ae44-090f-48e7-9fbc-e36a7f0509bf}, ! Handle
  Component Data 1,                       ! Name
  {f2516fa7-0588-4961-9038-6c2c5ee5fcef}, ! UUID
  {5b69f2b6-6868-4a40-8edd-39495165e5f1}, ! Version UUID
  1366306978,                             ! Creation Timestamp
  1366306978,                             ! Version Timestamp
  {11fb456a-83dd-4f74-ac45-65e0f3d577ee}; ! Name of Object 1

