
OS:Version,
  {687e4320-3828-433f-a159-c49fa039a051}, ! Handle
  0.9.3;                                  ! Version Identifier

OS:SizingPeriod:DesignDay,
  {9e9624cf-7eb2-4b29-9f1d-82433d4a6739}, ! Handle
  Bridgeport Sikorsky Memorial Ann Clg 2% Condns DP=>MDB, ! Name
  25.1,                                   ! Maximum Dry-Bulb Temperature {C}
  7.6,                                    ! Daily Dry-Bulb Temperature Range {deltaC}
  22.1,                                   ! Humidity Indicating Conditions at Maximum Dry-Bulb {BasedOnField A3}
  101289,                                 ! Barometric Pressure {Pa}
  4.8,                                    ! Wind Speed {m/s}
  240,                                    ! Wind Direction {deg}
  0,                                      ! Sky Clearness
  0,                                      ! Rain Indicator
  0,                                      ! Snow Indicator
  21,                                     ! Day of Month
  7,                                      ! Month
  SummerDesignDay,                        ! Day Type
  0,                                      ! Daylight Saving Time Indicator
  Dewpoint,                               ! Humidity Indicating Type
  ,                                       ! Humidity Indicating Day Schedule Name
  DefaultMultipliers,                     ! Dry-Bulb Temperature Range Modifier Type
  ,                                       ! Dry-Bulb Temperature Range Modifier Schedule Name
  ASHRAETau,                              ! Solar Model Indicator
  ,                                       ! Beam Solar Day Schedule Name
  ,                                       ! Diffuse Solar Day Schedule Name
  0.516,                                  ! ASHRAE Taub {dimensionless}
  1.863;                                  ! ASHRAE Taud {dimensionless}

OS:ComponentData,
  {2eed4266-f567-46f8-a072-cd1ef542cb9e}, ! Handle
  Component Data 1,                       ! Name
  {2d3ab66a-c576-4bf4-9982-2c9074fc08c2}, ! UUID
  {605a311f-b7ee-4b8f-ae09-c1cf3856e03d}, ! Version UUID
  1366306746,                             ! Creation Timestamp
  1366306746,                             ! Version Timestamp
  {9e9624cf-7eb2-4b29-9f1d-82433d4a6739}; ! Name of Object 1

