
OS:Version,
  {8785f27c-6e66-4dd5-9553-1059896c19f5}, ! Handle
  0.9.3;                                  ! Version Identifier

OS:SizingPeriod:DesignDay,
  {1a307607-671d-41de-995b-f067568dac51}, ! Handle
  Alpena County Regional Ap Ann Clg .4% Condns DB=>MWB, ! Name
  31.2,                                   ! Maximum Dry-Bulb Temperature {C}
  12.7,                                   ! Daily Dry-Bulb Temperature Range {deltaC}
  22.2,                                   ! Humidity Indicating Conditions at Maximum Dry-Bulb {BasedOnField A3}
  98828,                                  ! Barometric Pressure {Pa}
  4.8,                                    ! Wind Speed {m/s}
  230,                                    ! Wind Direction {deg}
  0,                                      ! Sky Clearness
  0,                                      ! Rain Indicator
  0,                                      ! Snow Indicator
  21,                                     ! Day of Month
  7,                                      ! Month
  SummerDesignDay,                        ! Day Type
  0,                                      ! Daylight Saving Time Indicator
  Wetbulb,                                ! Humidity Indicating Type
  ,                                       ! Humidity Indicating Day Schedule Name
  DefaultMultipliers,                     ! Dry-Bulb Temperature Range Modifier Type
  ,                                       ! Dry-Bulb Temperature Range Modifier Schedule Name
  ASHRAETau,                              ! Solar Model Indicator
  ,                                       ! Beam Solar Day Schedule Name
  ,                                       ! Diffuse Solar Day Schedule Name
  0.42,                                   ! ASHRAE Taub {dimensionless}
  2.176;                                  ! ASHRAE Taud {dimensionless}

OS:ComponentData,
  {952ec6ed-a88c-48da-8cde-c461a249a96c}, ! Handle
  Component Data 1,                       ! Name
  {d1e61b05-f3a9-450d-85e5-5eff64940c40}, ! UUID
  {37f79704-6d59-4d9e-8b85-aaa8f3a8f88d}, ! Version UUID
  1366307948,                             ! Creation Timestamp
  1366307948,                             ! Version Timestamp
  {1a307607-671d-41de-995b-f067568dac51}; ! Name of Object 1

