
OS:Version,
  {43dda001-0fa4-49a1-a49d-9cde71fa790c}, ! Handle
  0.9.3;                                  ! Version Identifier

OS:SizingPeriod:DesignDay,
  {e33cc145-bde0-4fe6-8d93-6fe36847a8d2}, ! Handle
  Covington/Cincinnati O Ann Htg Wind 99.6% Condns WS=>MCDB, ! Name
  1.9,                                    ! Maximum Dry-Bulb Temperature {C}
  0,                                      ! Daily Dry-Bulb Temperature Range {deltaC}
  1.9,                                    ! Humidity Indicating Conditions at Maximum Dry-Bulb {BasedOnField A3}
  98158,                                  ! Barometric Pressure {Pa}
  12,                                     ! Wind Speed {m/s}
  280,                                    ! Wind Direction {deg}
  0,                                      ! Sky Clearness
  0,                                      ! Rain Indicator
  0,                                      ! Snow Indicator
  21,                                     ! Day of Month
  1,                                      ! Month
  WinterDesignDay,                        ! Day Type
  0,                                      ! Daylight Saving Time Indicator
  Wetbulb,                                ! Humidity Indicating Type
  ,                                       ! Humidity Indicating Day Schedule Name
  DefaultMultipliers,                     ! Dry-Bulb Temperature Range Modifier Type
  ,                                       ! Dry-Bulb Temperature Range Modifier Schedule Name
  ASHRAEClearSky;                         ! Solar Model Indicator

OS:ComponentData,
  {1d3a54a2-402b-4f2f-808c-112064531bc3}, ! Handle
  Component Data 1,                       ! Name
  {8280f69a-d443-4f75-806c-1d8ebcd1f72c}, ! UUID
  {36394b2a-64ae-4434-af24-af4bf2139f1b}, ! Version UUID
  1366307614,                             ! Creation Timestamp
  1366307614,                             ! Version Timestamp
  {e33cc145-bde0-4fe6-8d93-6fe36847a8d2}; ! Name of Object 1

