
OS:Version,
  {636f39ba-0a1c-42ab-b23d-20d995e5ec51}, ! Handle
  0.9.3;                                  ! Version Identifier

OS:SizingPeriod:DesignDay,
  {d823f035-0332-48f8-823e-5ce442a556a5}, ! Handle
  Annette Ann Htg Wind 99.6% Condns WS=>MCDB, ! Name
  7.2,                                    ! Maximum Dry-Bulb Temperature {C}
  0,                                      ! Daily Dry-Bulb Temperature Range {deltaC}
  7.2,                                    ! Humidity Indicating Conditions at Maximum Dry-Bulb {BasedOnField A3}
  100917,                                 ! Barometric Pressure {Pa}
  14.1,                                   ! Wind Speed {m/s}
  50,                                     ! Wind Direction {deg}
  0,                                      ! Sky Clearness
  0,                                      ! Rain Indicator
  0,                                      ! Snow Indicator
  21,                                     ! Day of Month
  1,                                      ! Month
  WinterDesignDay,                        ! Day Type
  0,                                      ! Daylight Saving Time Indicator
  Wetbulb,                                ! Humidity Indicating Type
  ,                                       ! Humidity Indicating Day Schedule Name
  DefaultMultipliers,                     ! Dry-Bulb Temperature Range Modifier Type
  ,                                       ! Dry-Bulb Temperature Range Modifier Schedule Name
  ASHRAEClearSky;                         ! Solar Model Indicator

OS:ComponentData,
  {597b6931-7dc6-4d70-85e1-fe2450f8cb29}, ! Handle
  Component Data 1,                       ! Name
  {613a92a1-ce81-40b7-bc03-bae4edd1894f}, ! UUID
  {83f2bceb-ae12-4936-a6c2-f20d127c7860}, ! Version UUID
  1366304721,                             ! Creation Timestamp
  1366304721,                             ! Version Timestamp
  {d823f035-0332-48f8-823e-5ce442a556a5}; ! Name of Object 1

