
OS:Version,
  {74808a2f-d808-44b4-9dea-ac6b14a40d20}, ! Handle
  0.9.3;                                  ! Version Identifier

OS:SizingPeriod:DesignDay,
  {0f186322-d07a-459e-b5ab-f51e2f3a720a}, ! Handle
  Abilene Regional Ap  Ut Ann Clg .4% Condns DP=>MDB, ! Name
  26.7,                                   ! Maximum Dry-Bulb Temperature {C}
  11.6,                                   ! Daily Dry-Bulb Temperature Range {deltaC}
  22.1,                                   ! Humidity Indicating Conditions at Maximum Dry-Bulb {BasedOnField A3}
  95118,                                  ! Barometric Pressure {Pa}
  5.3,                                    ! Wind Speed {m/s}
  160,                                    ! Wind Direction {deg}
  0,                                      ! Sky Clearness
  0,                                      ! Rain Indicator
  0,                                      ! Snow Indicator
  21,                                     ! Day of Month
  7,                                      ! Month
  SummerDesignDay,                        ! Day Type
  0,                                      ! Daylight Saving Time Indicator
  Dewpoint,                               ! Humidity Indicating Type
  ,                                       ! Humidity Indicating Day Schedule Name
  DefaultMultipliers,                     ! Dry-Bulb Temperature Range Modifier Type
  ,                                       ! Dry-Bulb Temperature Range Modifier Schedule Name
  ASHRAETau,                              ! Solar Model Indicator
  ,                                       ! Beam Solar Day Schedule Name
  ,                                       ! Diffuse Solar Day Schedule Name
  0.426,                                  ! ASHRAE Taub {dimensionless}
  2.172;                                  ! ASHRAE Taud {dimensionless}

OS:ComponentData,
  {c1b65390-0fc1-4d5c-a343-804ec4905629}, ! Handle
  Component Data 1,                       ! Name
  {8c5dae94-b6a7-4640-a4a0-526024d8c5ec}, ! UUID
  {b94b9859-8a5e-4583-8ffe-bba453cae4a9}, ! Version UUID
  1366310559,                             ! Creation Timestamp
  1366310559,                             ! Version Timestamp
  {0f186322-d07a-459e-b5ab-f51e2f3a720a}; ! Name of Object 1

