
OS:Version,
  {2b2d1cc9-dc54-49de-9416-18e28433f7a1}, ! Handle
  0.9.3;                                  ! Version Identifier

OS:SizingPeriod:DesignDay,
  {ed68e964-906e-4955-8928-8784fb5711a0}, ! Handle
  HELENA Ann Htg 99% Condns DB,           ! Name
  -22.3,                                  ! Maximum Dry-Bulb Temperature {C}
  0,                                      ! Daily Dry-Bulb Temperature Range {deltaC}
  -22.3,                                  ! Humidity Indicating Conditions at Maximum Dry-Bulb {BasedOnField A3}
  87844,                                  ! Barometric Pressure {Pa}
  1.6,                                    ! Wind Speed {m/s}
  300,                                    ! Wind Direction {deg}
  0,                                      ! Sky Clearness
  0,                                      ! Rain Indicator
  0,                                      ! Snow Indicator
  21,                                     ! Day of Month
  12,                                     ! Month
  WinterDesignDay,                        ! Day Type
  0,                                      ! Daylight Saving Time Indicator
  Wetbulb,                                ! Humidity Indicating Type
  ,                                       ! Humidity Indicating Day Schedule Name
  DefaultMultipliers,                     ! Dry-Bulb Temperature Range Modifier Type
  ,                                       ! Dry-Bulb Temperature Range Modifier Schedule Name
  ASHRAEClearSky;                         ! Solar Model Indicator

OS:ComponentData,
  {6bee3e8c-a3e4-4db1-bc05-1a9394f3761d}, ! Handle
  Component Data 1,                       ! Name
  {36b38943-d6db-4939-9b17-d3f167cc4014}, ! UUID
  {8625c55b-6f60-4eb5-bb5d-bea8173fd9af}, ! Version UUID
  1366308788,                             ! Creation Timestamp
  1366308788,                             ! Version Timestamp
  {ed68e964-906e-4955-8928-8784fb5711a0}; ! Name of Object 1

