
OS:Version,
  {232523f6-2cfb-4a9a-bb18-41f72fe9cb34}, ! Handle
  0.9.3;                                  ! Version Identifier

OS:SizingPeriod:DesignDay,
  {36602087-aca9-4108-8a5f-78952c5d4b8a}, ! Handle
  Belleville Scott Afb Ann Clg 1% Condns WB=>MDB, ! Name
  31.6,                                   ! Maximum Dry-Bulb Temperature {C}
  11,                                     ! Daily Dry-Bulb Temperature Range {deltaC}
  26,                                     ! Humidity Indicating Conditions at Maximum Dry-Bulb {BasedOnField A3}
  99714,                                  ! Barometric Pressure {Pa}
  3.4,                                    ! Wind Speed {m/s}
  190,                                    ! Wind Direction {deg}
  0,                                      ! Sky Clearness
  0,                                      ! Rain Indicator
  0,                                      ! Snow Indicator
  21,                                     ! Day of Month
  7,                                      ! Month
  SummerDesignDay,                        ! Day Type
  0,                                      ! Daylight Saving Time Indicator
  Wetbulb,                                ! Humidity Indicating Type
  ,                                       ! Humidity Indicating Day Schedule Name
  DefaultMultipliers,                     ! Dry-Bulb Temperature Range Modifier Type
  ,                                       ! Dry-Bulb Temperature Range Modifier Schedule Name
  ASHRAETau,                              ! Solar Model Indicator
  ,                                       ! Beam Solar Day Schedule Name
  ,                                       ! Diffuse Solar Day Schedule Name
  0.48,                                   ! ASHRAE Taub {dimensionless}
  1.976;                                  ! ASHRAE Taud {dimensionless}

OS:ComponentData,
  {8524701c-51f4-41fd-937a-506909f959b4}, ! Handle
  Component Data 1,                       ! Name
  {da27fdbc-0cd1-4c21-a1a7-6732d53f8878}, ! UUID
  {ea49af35-8147-4dc0-860e-921feea299f5}, ! Version UUID
  1366307323,                             ! Creation Timestamp
  1366307323,                             ! Version Timestamp
  {36602087-aca9-4108-8a5f-78952c5d4b8a}; ! Name of Object 1

