
OS:Version,
  {d412ff6d-4550-4d6c-85b4-1d10d63c09ae}, ! Handle
  0.9.3;                                  ! Version Identifier

OS:SizingPeriod:DesignDay,
  {16ebdade-6aac-47d2-90bf-7c9aefa09ea4}, ! Handle
  KANSAS_CITY Ann Clg 2% Condns Enth=>MDB, ! Name
  30.6,                                   ! Maximum Dry-Bulb Temperature {C}
  10.5,                                   ! Daily Dry-Bulb Temperature Range {deltaC}
  76900,                                  ! Humidity Indicating Conditions at Maximum Dry-Bulb {BasedOnField A3}
  97598,                                  ! Barometric Pressure {Pa}
  5.7,                                    ! Wind Speed {m/s}
  180,                                    ! Wind Direction {deg}
  0,                                      ! Sky Clearness
  0,                                      ! Rain Indicator
  0,                                      ! Snow Indicator
  21,                                     ! Day of Month
  7,                                      ! Month
  SummerDesignDay,                        ! Day Type
  0,                                      ! Daylight Saving Time Indicator
  Enthalpy,                               ! Humidity Indicating Type
  ,                                       ! Humidity Indicating Day Schedule Name
  DefaultMultipliers,                     ! Dry-Bulb Temperature Range Modifier Type
  ,                                       ! Dry-Bulb Temperature Range Modifier Schedule Name
  ASHRAETau,                              ! Solar Model Indicator
  ,                                       ! Beam Solar Day Schedule Name
  ,                                       ! Diffuse Solar Day Schedule Name
  0.438,                                  ! ASHRAE Taub {dimensionless}
  2.146;                                  ! ASHRAE Taud {dimensionless}

OS:ComponentData,
  {39036f84-ee52-48ab-850e-f07196e43b86}, ! Handle
  Component Data 1,                       ! Name
  {1c886edb-3cb9-4d16-9918-5ce86132568c}, ! UUID
  {99cd6206-32c8-4f37-8ed2-c5fffbc022cd}, ! Version UUID
  1366308523,                             ! Creation Timestamp
  1366308523,                             ! Version Timestamp
  {16ebdade-6aac-47d2-90bf-7c9aefa09ea4}; ! Name of Object 1

