
OS:Version,
  {0b75bf32-cd3a-4e43-ba5e-2509332e91ec}, ! Handle
  0.9.3;                                  ! Version Identifier

OS:SizingPeriod:DesignDay,
  {8bb98e0c-b5ec-45af-a47d-0d1cb4d2d44b}, ! Handle
  Brewster Field Arpt Ann Clg 2% Condns WB=>MDB, ! Name
  29.6,                                   ! Maximum Dry-Bulb Temperature {C}
  12.5,                                   ! Daily Dry-Bulb Temperature Range {deltaC}
  22.9,                                   ! Humidity Indicating Conditions at Maximum Dry-Bulb {BasedOnField A3}
  93149,                                  ! Barometric Pressure {Pa}
  5.5,                                    ! Wind Speed {m/s}
  180,                                    ! Wind Direction {deg}
  0,                                      ! Sky Clearness
  0,                                      ! Rain Indicator
  0,                                      ! Snow Indicator
  21,                                     ! Day of Month
  7,                                      ! Month
  SummerDesignDay,                        ! Day Type
  0,                                      ! Daylight Saving Time Indicator
  Wetbulb,                                ! Humidity Indicating Type
  ,                                       ! Humidity Indicating Day Schedule Name
  DefaultMultipliers,                     ! Dry-Bulb Temperature Range Modifier Type
  ,                                       ! Dry-Bulb Temperature Range Modifier Schedule Name
  ASHRAETau,                              ! Solar Model Indicator
  ,                                       ! Beam Solar Day Schedule Name
  ,                                       ! Diffuse Solar Day Schedule Name
  0.401,                                  ! ASHRAE Taub {dimensionless}
  2.224;                                  ! ASHRAE Taud {dimensionless}

OS:ComponentData,
  {70ba8580-e444-43c5-85a0-b63af8fbe7d5}, ! Handle
  Component Data 1,                       ! Name
  {54d93119-4fbb-4ca8-bcdb-29b12de9a24f}, ! UUID
  {359b6bda-658b-4d2e-bf61-3f2b4fc0128a}, ! Version UUID
  1366309130,                             ! Creation Timestamp
  1366309130,                             ! Version Timestamp
  {8bb98e0c-b5ec-45af-a47d-0d1cb4d2d44b}; ! Name of Object 1

