
OS:Version,
  {9a6d6296-e5ef-46d8-9097-d9e49cd34ff3}, ! Handle
  0.9.3;                                  ! Version Identifier

OS:SizingPeriod:DesignDay,
  {515b9e5f-8d53-4db8-aae9-bc5428a1a64a}, ! Handle
  GLASGOW Ann Htg 99% Condns DB,          ! Name
  -27.1,                                  ! Maximum Dry-Bulb Temperature {C}
  0,                                      ! Daily Dry-Bulb Temperature Range {deltaC}
  -27.1,                                  ! Humidity Indicating Conditions at Maximum Dry-Bulb {BasedOnField A3}
  93194,                                  ! Barometric Pressure {Pa}
  3.3,                                    ! Wind Speed {m/s}
  340,                                    ! Wind Direction {deg}
  0,                                      ! Sky Clearness
  0,                                      ! Rain Indicator
  0,                                      ! Snow Indicator
  21,                                     ! Day of Month
  1,                                      ! Month
  WinterDesignDay,                        ! Day Type
  0,                                      ! Daylight Saving Time Indicator
  Wetbulb,                                ! Humidity Indicating Type
  ,                                       ! Humidity Indicating Day Schedule Name
  DefaultMultipliers,                     ! Dry-Bulb Temperature Range Modifier Type
  ,                                       ! Dry-Bulb Temperature Range Modifier Schedule Name
  ASHRAEClearSky;                         ! Solar Model Indicator

OS:ComponentData,
  {96c00677-e90f-49cb-9fce-5d95235194dd}, ! Handle
  Component Data 1,                       ! Name
  {076edbbc-dacf-49de-9f51-5217feaaa80b}, ! UUID
  {3c13019d-d3ce-44b4-b989-b369cbfa56cc}, ! Version UUID
  1366308753,                             ! Creation Timestamp
  1366308753,                             ! Version Timestamp
  {515b9e5f-8d53-4db8-aae9-bc5428a1a64a}; ! Name of Object 1

