
OS:Version,
  {086fd817-68a8-4185-b17a-b03e4218aa03}, ! Handle
  0.9.3;                                  ! Version Identifier

OS:SizingPeriod:DesignDay,
  {8e29d716-d7c7-4ba0-8a97-6956fd9d0370}, ! Handle
  Harrison Faa Ap Ann Htg Wind 99% Condns WS=>MCDB, ! Name
  4.7,                                    ! Maximum Dry-Bulb Temperature {C}
  0,                                      ! Daily Dry-Bulb Temperature Range {deltaC}
  4.7,                                    ! Humidity Indicating Conditions at Maximum Dry-Bulb {BasedOnField A3}
  96392,                                  ! Barometric Pressure {Pa}
  9.7,                                    ! Wind Speed {m/s}
  310,                                    ! Wind Direction {deg}
  0,                                      ! Sky Clearness
  0,                                      ! Rain Indicator
  0,                                      ! Snow Indicator
  21,                                     ! Day of Month
  1,                                      ! Month
  WinterDesignDay,                        ! Day Type
  0,                                      ! Daylight Saving Time Indicator
  Wetbulb,                                ! Humidity Indicating Type
  ,                                       ! Humidity Indicating Day Schedule Name
  DefaultMultipliers,                     ! Dry-Bulb Temperature Range Modifier Type
  ,                                       ! Dry-Bulb Temperature Range Modifier Schedule Name
  ASHRAEClearSky;                         ! Solar Model Indicator

OS:ComponentData,
  {7b9c6720-fdb0-4261-978c-a02f240b44ea}, ! Handle
  Component Data 1,                       ! Name
  {7bba500a-3e12-479e-b0e3-50c17cbfa88f}, ! UUID
  {6157837b-5f62-4fc7-9773-bac7b5f3bf3c}, ! Version UUID
  1366306214,                             ! Creation Timestamp
  1366306214,                             ! Version Timestamp
  {8e29d716-d7c7-4ba0-8a97-6956fd9d0370}; ! Name of Object 1

