
OS:Version,
  {a0778907-bd20-4005-b6e1-381dec3da8f5}, ! Handle
  0.9.3;                                  ! Version Identifier

OS:SizingPeriod:DesignDay,
  {d594b65d-b3c5-4bcd-98a9-ebc9914308c5}, ! Handle
  Fairchild Afb Ann Hum_n 99.6% Condns DP=>MCDB, ! Name
  -14.2,                                  ! Maximum Dry-Bulb Temperature {C}
  0,                                      ! Daily Dry-Bulb Temperature Range {deltaC}
  -19.7,                                  ! Humidity Indicating Conditions at Maximum Dry-Bulb {BasedOnField A3}
  92712,                                  ! Barometric Pressure {Pa}
  3,                                      ! Wind Speed {m/s}
  20,                                     ! Wind Direction {deg}
  0,                                      ! Sky Clearness
  0,                                      ! Rain Indicator
  0,                                      ! Snow Indicator
  21,                                     ! Day of Month
  12,                                     ! Month
  WinterDesignDay,                        ! Day Type
  0,                                      ! Daylight Saving Time Indicator
  Dewpoint,                               ! Humidity Indicating Type
  ,                                       ! Humidity Indicating Day Schedule Name
  DefaultMultipliers,                     ! Dry-Bulb Temperature Range Modifier Type
  ,                                       ! Dry-Bulb Temperature Range Modifier Schedule Name
  ASHRAEClearSky;                         ! Solar Model Indicator

OS:ComponentData,
  {2aa03bd3-52f3-44b4-8c0f-68cf0adabdee}, ! Handle
  Component Data 1,                       ! Name
  {7ba74f7d-496d-4c30-80f9-24b8c7a5b711}, ! UUID
  {d38498c6-ec67-4f46-ac4c-45591659eb3a}, ! Version UUID
  1366311279,                             ! Creation Timestamp
  1366311279,                             ! Version Timestamp
  {d594b65d-b3c5-4bcd-98a9-ebc9914308c5}; ! Name of Object 1

