
OS:Version,
  {90e0fb98-52dd-4522-a816-13f0e61ab833}, ! Handle
  0.9.3;                                  ! Version Identifier

OS:SizingPeriod:DesignDay,
  {f59a0069-166b-46d8-b259-ead044734ed6}, ! Handle
  Kotzebue Ralph Wein Memorial Ann Clg 1% Condns Enth=>MDB, ! Name
  17.4,                                   ! Maximum Dry-Bulb Temperature {C}
  4.9,                                    ! Daily Dry-Bulb Temperature Range {deltaC}
  41300,                                  ! Humidity Indicating Conditions at Maximum Dry-Bulb {BasedOnField A3}
  101289,                                 ! Barometric Pressure {Pa}
  4.7,                                    ! Wind Speed {m/s}
  300,                                    ! Wind Direction {deg}
  0,                                      ! Sky Clearness
  0,                                      ! Rain Indicator
  0,                                      ! Snow Indicator
  21,                                     ! Day of Month
  7,                                      ! Month
  SummerDesignDay,                        ! Day Type
  0,                                      ! Daylight Saving Time Indicator
  Enthalpy,                               ! Humidity Indicating Type
  ,                                       ! Humidity Indicating Day Schedule Name
  DefaultMultipliers,                     ! Dry-Bulb Temperature Range Modifier Type
  ,                                       ! Dry-Bulb Temperature Range Modifier Schedule Name
  ASHRAETau,                              ! Solar Model Indicator
  ,                                       ! Beam Solar Day Schedule Name
  ,                                       ! Diffuse Solar Day Schedule Name
  0.374,                                  ! ASHRAE Taub {dimensionless}
  2.244;                                  ! ASHRAE Taud {dimensionless}

OS:ComponentData,
  {de2a0ead-801a-4d5c-b923-2dd7f3e7e35b}, ! Handle
  Component Data 1,                       ! Name
  {525c0215-a71b-4ce4-a62e-bf92dc4dfa4a}, ! UUID
  {c6d7981e-0ffe-4425-bb31-b3561b10801b}, ! Version UUID
  1366305390,                             ! Creation Timestamp
  1366305390,                             ! Version Timestamp
  {f59a0069-166b-46d8-b259-ead044734ed6}; ! Name of Object 1

