
OS:Version,
  {79411bda-ee7e-4a85-acc7-cb8b2d7ce573}, ! Handle
  0.9.3;                                  ! Version Identifier

OS:SizingPeriod:DesignDay,
  {bc0541c1-9767-4407-b16b-029e69e4a1f1}, ! Handle
  Billings Logan IntL Arpt Ann Hum_n 99% Condns DP=>MCDB, ! Name
  -20.6,                                  ! Maximum Dry-Bulb Temperature {C}
  0,                                      ! Daily Dry-Bulb Temperature Range {deltaC}
  -24.5,                                  ! Humidity Indicating Conditions at Maximum Dry-Bulb {BasedOnField A3}
  88930,                                  ! Barometric Pressure {Pa}
  3.9,                                    ! Wind Speed {m/s}
  20,                                     ! Wind Direction {deg}
  0,                                      ! Sky Clearness
  0,                                      ! Rain Indicator
  0,                                      ! Snow Indicator
  21,                                     ! Day of Month
  1,                                      ! Month
  WinterDesignDay,                        ! Day Type
  0,                                      ! Daylight Saving Time Indicator
  Dewpoint,                               ! Humidity Indicating Type
  ,                                       ! Humidity Indicating Day Schedule Name
  DefaultMultipliers,                     ! Dry-Bulb Temperature Range Modifier Type
  ,                                       ! Dry-Bulb Temperature Range Modifier Schedule Name
  ASHRAEClearSky;                         ! Solar Model Indicator

OS:ComponentData,
  {2a3c1c07-1405-4d04-9819-51e14522561d}, ! Handle
  Component Data 1,                       ! Name
  {cfbcee09-f1ca-4517-ad4b-6809269ca60c}, ! UUID
  {02315b16-5399-475e-b513-95d962dddbda}, ! Version UUID
  1366308704,                             ! Creation Timestamp
  1366308704,                             ! Version Timestamp
  {bc0541c1-9767-4407-b16b-029e69e4a1f1}; ! Name of Object 1

