
OS:Version,
  {1642ae5a-a7f9-4ace-810f-d640e23756bc}, ! Handle
  0.9.3;                                  ! Version Identifier

OS:SizingPeriod:DesignDay,
  {6f2543ce-e732-4227-880d-1ccff3c2ce45}, ! Handle
  Gulkana Ann Clg 1% Condns DB=>MWB,      ! Name
  23.2,                                   ! Maximum Dry-Bulb Temperature {C}
  11.7,                                   ! Daily Dry-Bulb Temperature Range {deltaC}
  13.4,                                   ! Humidity Indicating Conditions at Maximum Dry-Bulb {BasedOnField A3}
  95679,                                  ! Barometric Pressure {Pa}
  2.6,                                    ! Wind Speed {m/s}
  160,                                    ! Wind Direction {deg}
  0,                                      ! Sky Clearness
  0,                                      ! Rain Indicator
  0,                                      ! Snow Indicator
  21,                                     ! Day of Month
  7,                                      ! Month
  SummerDesignDay,                        ! Day Type
  0,                                      ! Daylight Saving Time Indicator
  Wetbulb,                                ! Humidity Indicating Type
  ,                                       ! Humidity Indicating Day Schedule Name
  DefaultMultipliers,                     ! Dry-Bulb Temperature Range Modifier Type
  ,                                       ! Dry-Bulb Temperature Range Modifier Schedule Name
  ASHRAETau,                              ! Solar Model Indicator
  ,                                       ! Beam Solar Day Schedule Name
  ,                                       ! Diffuse Solar Day Schedule Name
  0.385,                                  ! ASHRAE Taub {dimensionless}
  2.111;                                  ! ASHRAE Taud {dimensionless}

OS:ComponentData,
  {eb4b16cc-5dba-4862-b2b6-ea4ed488c010}, ! Handle
  Component Data 1,                       ! Name
  {6fefb8c8-26f0-4e1f-9ac5-e69092ddb37b}, ! UUID
  {a04bd7c2-f6b0-4ee1-92b2-cfd827288751}, ! Version UUID
  1366305282,                             ! Creation Timestamp
  1366305282,                             ! Version Timestamp
  {6f2543ce-e732-4227-880d-1ccff3c2ce45}; ! Name of Object 1

