
OS:Version,
  {f37050df-b787-437d-ac93-ea5f55143404}, ! Handle
  0.9.3;                                  ! Version Identifier

OS:SizingPeriod:DesignDay,
  {09abcba2-3c0b-4947-8f2c-10493d08f80e}, ! Handle
  Fullerton Municipal Ann Clg 2% Condns DB=>MWB, ! Name
  30.8,                                   ! Maximum Dry-Bulb Temperature {C}
  10.5,                                   ! Daily Dry-Bulb Temperature Range {deltaC}
  20.1,                                   ! Humidity Indicating Conditions at Maximum Dry-Bulb {BasedOnField A3}
  100977,                                 ! Barometric Pressure {Pa}
  3.2,                                    ! Wind Speed {m/s}
  200,                                    ! Wind Direction {deg}
  0,                                      ! Sky Clearness
  0,                                      ! Rain Indicator
  0,                                      ! Snow Indicator
  21,                                     ! Day of Month
  8,                                      ! Month
  SummerDesignDay,                        ! Day Type
  0,                                      ! Daylight Saving Time Indicator
  Wetbulb,                                ! Humidity Indicating Type
  ,                                       ! Humidity Indicating Day Schedule Name
  DefaultMultipliers,                     ! Dry-Bulb Temperature Range Modifier Type
  ,                                       ! Dry-Bulb Temperature Range Modifier Schedule Name
  ASHRAETau,                              ! Solar Model Indicator
  ,                                       ! Beam Solar Day Schedule Name
  ,                                       ! Diffuse Solar Day Schedule Name
  0.453,                                  ! ASHRAE Taub {dimensionless}
  2.056;                                  ! ASHRAE Taud {dimensionless}

OS:ComponentData,
  {d2a124fd-a2b1-4ba3-b2a8-54890f4bbc8b}, ! Handle
  Component Data 1,                       ! Name
  {f195fecb-4147-454c-b4fa-5323f4502eb5}, ! UUID
  {ba7ac393-98a4-4df7-91cb-a7f613f325fa}, ! Version UUID
  1366306442,                             ! Creation Timestamp
  1366306442,                             ! Version Timestamp
  {09abcba2-3c0b-4947-8f2c-10493d08f80e}; ! Name of Object 1

