
OS:Version,
  {4aaa25a3-162b-4099-9600-0cd59e7c8a08}, ! Handle
  0.9.3;                                  ! Version Identifier

OS:SizingPeriod:DesignDay,
  {bea97136-09a1-44fc-acbe-2ef12df1d310}, ! Handle
  Des Moines Intl Ap Ann Clg 1% Condns Enth=>MDB, ! Name
  30.8,                                   ! Maximum Dry-Bulb Temperature {C}
  10.1,                                   ! Daily Dry-Bulb Temperature Range {deltaC}
  77800,                                  ! Humidity Indicating Conditions at Maximum Dry-Bulb {BasedOnField A3}
  97866,                                  ! Barometric Pressure {Pa}
  5.4,                                    ! Wind Speed {m/s}
  180,                                    ! Wind Direction {deg}
  0,                                      ! Sky Clearness
  0,                                      ! Rain Indicator
  0,                                      ! Snow Indicator
  21,                                     ! Day of Month
  7,                                      ! Month
  SummerDesignDay,                        ! Day Type
  0,                                      ! Daylight Saving Time Indicator
  Enthalpy,                               ! Humidity Indicating Type
  ,                                       ! Humidity Indicating Day Schedule Name
  DefaultMultipliers,                     ! Dry-Bulb Temperature Range Modifier Type
  ,                                       ! Dry-Bulb Temperature Range Modifier Schedule Name
  ASHRAETau,                              ! Solar Model Indicator
  ,                                       ! Beam Solar Day Schedule Name
  ,                                       ! Diffuse Solar Day Schedule Name
  0.425,                                  ! ASHRAE Taub {dimensionless}
  2.17;                                   ! ASHRAE Taud {dimensionless}

OS:ComponentData,
  {e23fa498-ee0c-49ae-af2c-6e1070367504}, ! Handle
  Component Data 1,                       ! Name
  {db78ef37-ae4f-449a-95a9-2225c07cc8df}, ! UUID
  {ce7ebaa1-0cb3-467e-9823-919c6bb51a80}, ! Version UUID
  1366307182,                             ! Creation Timestamp
  1366307182,                             ! Version Timestamp
  {bea97136-09a1-44fc-acbe-2ef12df1d310}; ! Name of Object 1

