
OS:Version,
  {41fae952-21fe-4bf3-9757-edf0adf827f8}, ! Handle
  0.9.3;                                  ! Version Identifier

OS:SizingPeriod:DesignDay,
  {4194d662-d22a-4cde-b9c7-9ced6297537c}, ! Handle
  Jackson International Ap Ann Hum_n 99.6% Condns DP=>MCDB, ! Name
  -1,                                     ! Maximum Dry-Bulb Temperature {C}
  0,                                      ! Daily Dry-Bulb Temperature Range {deltaC}
  -12.2,                                  ! Humidity Indicating Conditions at Maximum Dry-Bulb {BasedOnField A3}
  100201,                                 ! Barometric Pressure {Pa}
  2.6,                                    ! Wind Speed {m/s}
  350,                                    ! Wind Direction {deg}
  0,                                      ! Sky Clearness
  0,                                      ! Rain Indicator
  0,                                      ! Snow Indicator
  21,                                     ! Day of Month
  1,                                      ! Month
  WinterDesignDay,                        ! Day Type
  0,                                      ! Daylight Saving Time Indicator
  Dewpoint,                               ! Humidity Indicating Type
  ,                                       ! Humidity Indicating Day Schedule Name
  DefaultMultipliers,                     ! Dry-Bulb Temperature Range Modifier Type
  ,                                       ! Dry-Bulb Temperature Range Modifier Schedule Name
  ASHRAEClearSky;                         ! Solar Model Indicator

OS:ComponentData,
  {15bdcca9-4e98-44c9-986d-977dce709340}, ! Handle
  Component Data 1,                       ! Name
  {d32b2f15-b657-4b21-ae85-bd972db1f11c}, ! UUID
  {afca9aa2-015c-49e2-ab13-218d26e0a17a}, ! Version UUID
  1366308650,                             ! Creation Timestamp
  1366308650,                             ! Version Timestamp
  {4194d662-d22a-4cde-b9c7-9ced6297537c}; ! Name of Object 1

