
OS:Version,
  {751e70b7-cf61-495a-863f-ceb40a905af3}, ! Handle
  0.9.3;                                  ! Version Identifier

OS:SizingPeriod:DesignDay,
  {944ab60d-6437-4b8b-968d-0928d402190a}, ! Handle
  HUNTINGTON Ann Clg 2% Condns DB=>MWB,   ! Name
  30.6,                                   ! Maximum Dry-Bulb Temperature {C}
  10.5,                                   ! Daily Dry-Bulb Temperature Range {deltaC}
  22.6,                                   ! Humidity Indicating Conditions at Maximum Dry-Bulb {BasedOnField A3}
  98299,                                  ! Barometric Pressure {Pa}
  3.3,                                    ! Wind Speed {m/s}
  260,                                    ! Wind Direction {deg}
  0,                                      ! Sky Clearness
  0,                                      ! Rain Indicator
  0,                                      ! Snow Indicator
  21,                                     ! Day of Month
  7,                                      ! Month
  SummerDesignDay,                        ! Day Type
  0,                                      ! Daylight Saving Time Indicator
  Wetbulb,                                ! Humidity Indicating Type
  ,                                       ! Humidity Indicating Day Schedule Name
  DefaultMultipliers,                     ! Dry-Bulb Temperature Range Modifier Type
  ,                                       ! Dry-Bulb Temperature Range Modifier Schedule Name
  ASHRAETau,                              ! Solar Model Indicator
  ,                                       ! Beam Solar Day Schedule Name
  ,                                       ! Diffuse Solar Day Schedule Name
  0.512,                                  ! ASHRAE Taub {dimensionless}
  1.865;                                  ! ASHRAE Taud {dimensionless}

OS:ComponentData,
  {fe974ed3-b523-4b44-a7d9-9a40a3acbb94}, ! Handle
  Component Data 1,                       ! Name
  {1680201c-b7c6-4bf3-b974-88cf0459c703}, ! UUID
  {de5daa80-8515-4056-abcd-cb61fc083f3c}, ! Version UUID
  1366311658,                             ! Creation Timestamp
  1366311658,                             ! Version Timestamp
  {944ab60d-6437-4b8b-968d-0928d402190a}; ! Name of Object 1

