
OS:Version,
  {30de9b39-c76f-4d50-b497-4fefd5d164f5}, ! Handle
  0.9.3;                                  ! Version Identifier

OS:SizingPeriod:DesignDay,
  {9172bdf8-5697-4610-af87-ab3a2ea7f565}, ! Handle
  Billings Logan IntL Arpt Ann Clg 2% Condns Enth=>MDB, ! Name
  28.1,                                   ! Maximum Dry-Bulb Temperature {C}
  14.5,                                   ! Daily Dry-Bulb Temperature Range {deltaC}
  52700,                                  ! Humidity Indicating Conditions at Maximum Dry-Bulb {BasedOnField A3}
  88930,                                  ! Barometric Pressure {Pa}
  4.2,                                    ! Wind Speed {m/s}
  50,                                     ! Wind Direction {deg}
  0,                                      ! Sky Clearness
  0,                                      ! Rain Indicator
  0,                                      ! Snow Indicator
  21,                                     ! Day of Month
  7,                                      ! Month
  SummerDesignDay,                        ! Day Type
  0,                                      ! Daylight Saving Time Indicator
  Enthalpy,                               ! Humidity Indicating Type
  ,                                       ! Humidity Indicating Day Schedule Name
  DefaultMultipliers,                     ! Dry-Bulb Temperature Range Modifier Type
  ,                                       ! Dry-Bulb Temperature Range Modifier Schedule Name
  ASHRAETau,                              ! Solar Model Indicator
  ,                                       ! Beam Solar Day Schedule Name
  ,                                       ! Diffuse Solar Day Schedule Name
  0.405,                                  ! ASHRAE Taub {dimensionless}
  2.084;                                  ! ASHRAE Taud {dimensionless}

OS:ComponentData,
  {f9978943-3afa-43e4-b51a-b7019da60307}, ! Handle
  Component Data 1,                       ! Name
  {d4bda4b2-4f2c-4432-9f16-67b179607193}, ! UUID
  {aa5fbc38-f22e-4273-bd67-f4d8bbc19ca1}, ! Version UUID
  1366308707,                             ! Creation Timestamp
  1366308707,                             ! Version Timestamp
  {9172bdf8-5697-4610-af87-ab3a2ea7f565}; ! Name of Object 1

