
OS:Version,
  {1d77cea1-8529-446f-8d6e-fed1e267839c}, ! Handle
  0.9.3;                                  ! Version Identifier

OS:SizingPeriod:DesignDay,
  {e9fbe5d2-b69d-4127-aa23-e0f64eaba48a}, ! Handle
  Duluth International Arpt Ann Clg 2% Condns WB=>MDB, ! Name
  24.1,                                   ! Maximum Dry-Bulb Temperature {C}
  10.9,                                   ! Daily Dry-Bulb Temperature Range {deltaC}
  20,                                     ! Humidity Indicating Conditions at Maximum Dry-Bulb {BasedOnField A3}
  96230,                                  ! Barometric Pressure {Pa}
  5.2,                                    ! Wind Speed {m/s}
  220,                                    ! Wind Direction {deg}
  0,                                      ! Sky Clearness
  0,                                      ! Rain Indicator
  0,                                      ! Snow Indicator
  21,                                     ! Day of Month
  7,                                      ! Month
  SummerDesignDay,                        ! Day Type
  0,                                      ! Daylight Saving Time Indicator
  Wetbulb,                                ! Humidity Indicating Type
  ,                                       ! Humidity Indicating Day Schedule Name
  DefaultMultipliers,                     ! Dry-Bulb Temperature Range Modifier Type
  ,                                       ! Dry-Bulb Temperature Range Modifier Schedule Name
  ASHRAETau,                              ! Solar Model Indicator
  ,                                       ! Beam Solar Day Schedule Name
  ,                                       ! Diffuse Solar Day Schedule Name
  0.398,                                  ! ASHRAE Taub {dimensionless}
  2.218;                                  ! ASHRAE Taud {dimensionless}

OS:ComponentData,
  {ce9f9397-ff5d-49bc-b571-f7572bcb4b34}, ! Handle
  Component Data 1,                       ! Name
  {14183bfc-5c21-4754-b276-fe74c2fc4d4e}, ! UUID
  {e7c60b52-0ec0-41f0-ab4b-cfe4f6a3f2d0}, ! Version UUID
  1366308208,                             ! Creation Timestamp
  1366308208,                             ! Version Timestamp
  {e9fbe5d2-b69d-4127-aa23-e0f64eaba48a}; ! Name of Object 1

