
OS:Version,
  {451e4e54-2093-42c9-8b67-e713a315d399}, ! Handle
  0.9.3;                                  ! Version Identifier

OS:SizingPeriod:DesignDay,
  {43a06812-1dcc-4eb0-bfce-fa0dcc3b883c}, ! Handle
  Binghamton Ann Htg 99% Condns DB,       ! Name
  -15.8,                                  ! Maximum Dry-Bulb Temperature {C}
  0,                                      ! Daily Dry-Bulb Temperature Range {deltaC}
  -15.8,                                  ! Humidity Indicating Conditions at Maximum Dry-Bulb {BasedOnField A3}
  95495,                                  ! Barometric Pressure {Pa}
  4.6,                                    ! Wind Speed {m/s}
  250,                                    ! Wind Direction {deg}
  0,                                      ! Sky Clearness
  0,                                      ! Rain Indicator
  0,                                      ! Snow Indicator
  21,                                     ! Day of Month
  1,                                      ! Month
  WinterDesignDay,                        ! Day Type
  0,                                      ! Daylight Saving Time Indicator
  Wetbulb,                                ! Humidity Indicating Type
  ,                                       ! Humidity Indicating Day Schedule Name
  DefaultMultipliers,                     ! Dry-Bulb Temperature Range Modifier Type
  ,                                       ! Dry-Bulb Temperature Range Modifier Schedule Name
  ASHRAEClearSky;                         ! Solar Model Indicator

OS:ComponentData,
  {7d043282-c45f-411b-ab74-cdb33f8f3eeb}, ! Handle
  Component Data 1,                       ! Name
  {a017f845-c43f-476d-b467-88f169e38507}, ! UUID
  {1d809642-498e-4498-add8-9cf9362db435}, ! Version UUID
  1366309588,                             ! Creation Timestamp
  1366309588,                             ! Version Timestamp
  {43a06812-1dcc-4eb0-bfce-fa0dcc3b883c}; ! Name of Object 1

