
OS:Version,
  {c254fa49-3ada-4482-96cf-522a5f350ae3}, ! Handle
  0.9.3;                                  ! Version Identifier

OS:SizingPeriod:DesignDay,
  {bf3e3019-2acc-492a-80b9-fbbe2cdafaae}, ! Handle
  Erie International Ap Ann Htg Wind 99.6% Condns WS=>MCDB, ! Name
  -1.7,                                   ! Maximum Dry-Bulb Temperature {C}
  0,                                      ! Daily Dry-Bulb Temperature Range {deltaC}
  -1.7,                                   ! Humidity Indicating Conditions at Maximum Dry-Bulb {BasedOnField A3}
  98686,                                  ! Barometric Pressure {Pa}
  12.9,                                   ! Wind Speed {m/s}
  190,                                    ! Wind Direction {deg}
  0,                                      ! Sky Clearness
  0,                                      ! Rain Indicator
  0,                                      ! Snow Indicator
  21,                                     ! Day of Month
  1,                                      ! Month
  WinterDesignDay,                        ! Day Type
  0,                                      ! Daylight Saving Time Indicator
  Wetbulb,                                ! Humidity Indicating Type
  ,                                       ! Humidity Indicating Day Schedule Name
  DefaultMultipliers,                     ! Dry-Bulb Temperature Range Modifier Type
  ,                                       ! Dry-Bulb Temperature Range Modifier Schedule Name
  ASHRAEClearSky;                         ! Solar Model Indicator

OS:ComponentData,
  {4bbe29dd-2bf4-4633-a72a-e9b1d96eadd3}, ! Handle
  Component Data 1,                       ! Name
  {6e210967-3ccb-4246-87fa-8c901ab3bccd}, ! UUID
  {7e271cbd-1c5d-43e8-b868-7886fd616042}, ! Version UUID
  1366310173,                             ! Creation Timestamp
  1366310173,                             ! Version Timestamp
  {bf3e3019-2acc-492a-80b9-fbbe2cdafaae}; ! Name of Object 1

