
OS:Version,
  {5f7e8e14-56ac-4285-8fc4-6afa5bbcede3}, ! Handle
  0.9.3;                                  ! Version Identifier

OS:SizingPeriod:DesignDay,
  {d98a63dd-cc78-428d-930e-5592bd4012b8}, ! Handle
  Fort Campbell Aaf Ann Clg 2% Condns WB=>MDB, ! Name
  30.5,                                   ! Maximum Dry-Bulb Temperature {C}
  10.5,                                   ! Daily Dry-Bulb Temperature Range {deltaC}
  25.3,                                   ! Humidity Indicating Conditions at Maximum Dry-Bulb {BasedOnField A3}
  99264,                                  ! Barometric Pressure {Pa}
  3,                                      ! Wind Speed {m/s}
  210,                                    ! Wind Direction {deg}
  0,                                      ! Sky Clearness
  0,                                      ! Rain Indicator
  0,                                      ! Snow Indicator
  21,                                     ! Day of Month
  7,                                      ! Month
  SummerDesignDay,                        ! Day Type
  0,                                      ! Daylight Saving Time Indicator
  Wetbulb,                                ! Humidity Indicating Type
  ,                                       ! Humidity Indicating Day Schedule Name
  DefaultMultipliers,                     ! Dry-Bulb Temperature Range Modifier Type
  ,                                       ! Dry-Bulb Temperature Range Modifier Schedule Name
  ASHRAETau,                              ! Solar Model Indicator
  ,                                       ! Beam Solar Day Schedule Name
  ,                                       ! Diffuse Solar Day Schedule Name
  0.511,                                  ! ASHRAE Taub {dimensionless}
  1.883;                                  ! ASHRAE Taud {dimensionless}

OS:ComponentData,
  {d5016103-85f5-448f-b9d2-3f85ac0633d5}, ! Handle
  Component Data 1,                       ! Name
  {cc0c1ff4-605c-4651-b843-95540f18263f}, ! UUID
  {0fdb2e4b-bb0f-4d77-a558-83ca16eaa0b7}, ! Version UUID
  1366307629,                             ! Creation Timestamp
  1366307629,                             ! Version Timestamp
  {d98a63dd-cc78-428d-930e-5592bd4012b8}; ! Name of Object 1

