
OS:Version,
  {b093ebe2-a7fe-4a5e-80e1-59cea5b562fa}, ! Handle
  0.9.3;                                  ! Version Identifier

OS:SizingPeriod:DesignDay,
  {43eb2a03-3861-4cf8-a9a3-7490cfb659af}, ! Handle
  Fallon Naas Ann Clg 1% Condns WB=>MDB,  ! Name
  33.4,                                   ! Maximum Dry-Bulb Temperature {C}
  19.4,                                   ! Daily Dry-Bulb Temperature Range {deltaC}
  17.4,                                   ! Humidity Indicating Conditions at Maximum Dry-Bulb {BasedOnField A3}
  87726,                                  ! Barometric Pressure {Pa}
  2.7,                                    ! Wind Speed {m/s}
  340,                                    ! Wind Direction {deg}
  0,                                      ! Sky Clearness
  0,                                      ! Rain Indicator
  0,                                      ! Snow Indicator
  21,                                     ! Day of Month
  7,                                      ! Month
  SummerDesignDay,                        ! Day Type
  0,                                      ! Daylight Saving Time Indicator
  Wetbulb,                                ! Humidity Indicating Type
  ,                                       ! Humidity Indicating Day Schedule Name
  DefaultMultipliers,                     ! Dry-Bulb Temperature Range Modifier Type
  ,                                       ! Dry-Bulb Temperature Range Modifier Schedule Name
  ASHRAETau,                              ! Solar Model Indicator
  ,                                       ! Beam Solar Day Schedule Name
  ,                                       ! Diffuse Solar Day Schedule Name
  0.428,                                  ! ASHRAE Taub {dimensionless}
  1.955;                                  ! ASHRAE Taud {dimensionless}

OS:ComponentData,
  {bf5d4ee3-aac2-4e73-8231-49030a51177c}, ! Handle
  Component Data 1,                       ! Name
  {34746391-a45d-436f-b16d-91d8e58d5f8a}, ! UUID
  {f83ae829-fbf7-4628-a7d9-6344f0b0ed0f}, ! Version UUID
  1366309492,                             ! Creation Timestamp
  1366309492,                             ! Version Timestamp
  {43eb2a03-3861-4cf8-a9a3-7490cfb659af}; ! Name of Object 1

