
OS:Version,
  {b74f21c9-ae70-4915-b9c4-2b43c26b9a2c}, ! Handle
  0.9.3;                                  ! Version Identifier

OS:SizingPeriod:DesignDay,
  {d429417f-1ec3-4539-91a4-fde1747b48c8}, ! Handle
  Kingsville/NAS Ann Htg Wind 99.6% Condns WS=>MCDB, ! Name
  17.2,                                   ! Maximum Dry-Bulb Temperature {C}
  0,                                      ! Daily Dry-Bulb Temperature Range {deltaC}
  17.2,                                   ! Humidity Indicating Conditions at Maximum Dry-Bulb {BasedOnField A3}
  101145,                                 ! Barometric Pressure {Pa}
  11.7,                                   ! Wind Speed {m/s}
  0,                                      ! Wind Direction {deg}
  0,                                      ! Sky Clearness
  0,                                      ! Rain Indicator
  0,                                      ! Snow Indicator
  21,                                     ! Day of Month
  1,                                      ! Month
  WinterDesignDay,                        ! Day Type
  0,                                      ! Daylight Saving Time Indicator
  Wetbulb,                                ! Humidity Indicating Type
  ,                                       ! Humidity Indicating Day Schedule Name
  DefaultMultipliers,                     ! Dry-Bulb Temperature Range Modifier Type
  ,                                       ! Dry-Bulb Temperature Range Modifier Schedule Name
  ASHRAEClearSky;                         ! Solar Model Indicator

OS:ComponentData,
  {668f28d4-5af6-4c56-afa6-ccbd9c860731}, ! Handle
  Component Data 1,                       ! Name
  {c2019f2f-ecc4-4db8-81d9-7e4577a2af36}, ! UUID
  {8ea85111-332a-4f8a-b23e-2967d160e14b}, ! Version UUID
  1366310771,                             ! Creation Timestamp
  1366310771,                             ! Version Timestamp
  {d429417f-1ec3-4539-91a4-fde1747b48c8}; ! Name of Object 1

