
OS:Version,
  {d627bd34-99ab-47f1-b219-f012dc66de3e}, ! Handle
  0.9.3;                                  ! Version Identifier

OS:SizingPeriod:DesignDay,
  {b20ec6cd-4817-4dee-ae35-38bd31d9414d}, ! Handle
  Blue Canyon Ap Ann Clg 2% Condns WB=>MDB, ! Name
  24.1,                                   ! Maximum Dry-Bulb Temperature {C}
  8,                                      ! Daily Dry-Bulb Temperature Range {deltaC}
  15,                                     ! Humidity Indicating Conditions at Maximum Dry-Bulb {BasedOnField A3}
  83431,                                  ! Barometric Pressure {Pa}
  2.6,                                    ! Wind Speed {m/s}
  280,                                    ! Wind Direction {deg}
  0,                                      ! Sky Clearness
  0,                                      ! Rain Indicator
  0,                                      ! Snow Indicator
  21,                                     ! Day of Month
  7,                                      ! Month
  SummerDesignDay,                        ! Day Type
  0,                                      ! Daylight Saving Time Indicator
  Wetbulb,                                ! Humidity Indicating Type
  ,                                       ! Humidity Indicating Day Schedule Name
  DefaultMultipliers,                     ! Dry-Bulb Temperature Range Modifier Type
  ,                                       ! Dry-Bulb Temperature Range Modifier Schedule Name
  ASHRAETau,                              ! Solar Model Indicator
  ,                                       ! Beam Solar Day Schedule Name
  ,                                       ! Diffuse Solar Day Schedule Name
  0.324,                                  ! ASHRAE Taub {dimensionless}
  2.564;                                  ! ASHRAE Taud {dimensionless}

