
OS:Version,
  {9e3356e5-274b-46da-8e07-0182c0331463}, ! Handle
  0.9.3;                                  ! Version Identifier

OS:SizingPeriod:DesignDay,
  {8fa3a381-5f0c-4910-a8ed-a5fdae11cea3}, ! Handle
  Charleston Ann Clg 2% Condns DP=>MDB,   ! Name
  28.1,                                   ! Maximum Dry-Bulb Temperature {C}
  9,                                      ! Daily Dry-Bulb Temperature Range {deltaC}
  24.8,                                   ! Humidity Indicating Conditions at Maximum Dry-Bulb {BasedOnField A3}
  101145,                                 ! Barometric Pressure {Pa}
  4.4,                                    ! Wind Speed {m/s}
  230,                                    ! Wind Direction {deg}
  0,                                      ! Sky Clearness
  0,                                      ! Rain Indicator
  0,                                      ! Snow Indicator
  21,                                     ! Day of Month
  7,                                      ! Month
  SummerDesignDay,                        ! Day Type
  0,                                      ! Daylight Saving Time Indicator
  Dewpoint,                               ! Humidity Indicating Type
  ,                                       ! Humidity Indicating Day Schedule Name
  DefaultMultipliers,                     ! Dry-Bulb Temperature Range Modifier Type
  ,                                       ! Dry-Bulb Temperature Range Modifier Schedule Name
  ASHRAETau,                              ! Solar Model Indicator
  ,                                       ! Beam Solar Day Schedule Name
  ,                                       ! Diffuse Solar Day Schedule Name
  0.559,                                  ! ASHRAE Taub {dimensionless}
  1.811;                                  ! ASHRAE Taud {dimensionless}

OS:ComponentData,
  {c242d316-4041-4fe7-9c36-263224f1a0e5}, ! Handle
  Component Data 1,                       ! Name
  {92062899-a6a1-4a6e-a056-53b98e21a32e}, ! UUID
  {b2e3e38a-7dff-435b-a9e4-169ce0dce56e}, ! Version UUID
  1366310328,                             ! Creation Timestamp
  1366310328,                             ! Version Timestamp
  {8fa3a381-5f0c-4910-a8ed-a5fdae11cea3}; ! Name of Object 1

