
OS:Version,
  {36875018-c930-485a-b57b-b6191e2b6808}, ! Handle
  0.9.3;                                  ! Version Identifier

OS:SizingPeriod:DesignDay,
  {e865a28d-78d5-4a47-88d4-ce41faad827b}, ! Handle
  Hayward Air Term Ann Clg 1% Condns DP=>MDB, ! Name
  21.8,                                   ! Maximum Dry-Bulb Temperature {C}
  9.3,                                    ! Daily Dry-Bulb Temperature Range {deltaC}
  16.2,                                   ! Humidity Indicating Conditions at Maximum Dry-Bulb {BasedOnField A3}
  101157,                                 ! Barometric Pressure {Pa}
  4.9,                                    ! Wind Speed {m/s}
  290,                                    ! Wind Direction {deg}
  0,                                      ! Sky Clearness
  0,                                      ! Rain Indicator
  0,                                      ! Snow Indicator
  21,                                     ! Day of Month
  9,                                      ! Month
  SummerDesignDay,                        ! Day Type
  0,                                      ! Daylight Saving Time Indicator
  Dewpoint,                               ! Humidity Indicating Type
  ,                                       ! Humidity Indicating Day Schedule Name
  DefaultMultipliers,                     ! Dry-Bulb Temperature Range Modifier Type
  ,                                       ! Dry-Bulb Temperature Range Modifier Schedule Name
  ASHRAETau,                              ! Solar Model Indicator
  ,                                       ! Beam Solar Day Schedule Name
  ,                                       ! Diffuse Solar Day Schedule Name
  0.356,                                  ! ASHRAE Taub {dimensionless}
  2.494;                                  ! ASHRAE Taud {dimensionless}

OS:ComponentData,
  {5f0858be-8d71-4772-8e7e-71fc571e2d74}, ! Handle
  Component Data 1,                       ! Name
  {06909679-ba79-4f59-9ce9-e477ca0069a8}, ! UUID
  {25c9329c-e0f3-4b24-8302-73986057d918}, ! Version UUID
  1366306449,                             ! Creation Timestamp
  1366306449,                             ! Version Timestamp
  {e865a28d-78d5-4a47-88d4-ce41faad827b}; ! Name of Object 1

