
OS:Version,
  {d456fc98-02f7-4af4-ad5b-eaaf8bb91834}, ! Handle
  0.9.3;                                  ! Version Identifier

OS:SizingPeriod:DesignDay,
  {e8279b18-03e2-40a6-82da-c84ae92b4b2d}, ! Handle
  Austin Ann Htg Wind 99.6% Condns WS=>MCDB, ! Name
  8.3,                                    ! Maximum Dry-Bulb Temperature {C}
  0,                                      ! Daily Dry-Bulb Temperature Range {deltaC}
  8.3,                                    ! Humidity Indicating Conditions at Maximum Dry-Bulb {BasedOnField A3}
  99075,                                  ! Barometric Pressure {Pa}
  11.5,                                   ! Wind Speed {m/s}
  10,                                     ! Wind Direction {deg}
  0,                                      ! Sky Clearness
  0,                                      ! Rain Indicator
  0,                                      ! Snow Indicator
  21,                                     ! Day of Month
  1,                                      ! Month
  WinterDesignDay,                        ! Day Type
  0,                                      ! Daylight Saving Time Indicator
  Wetbulb,                                ! Humidity Indicating Type
  ,                                       ! Humidity Indicating Day Schedule Name
  DefaultMultipliers,                     ! Dry-Bulb Temperature Range Modifier Type
  ,                                       ! Dry-Bulb Temperature Range Modifier Schedule Name
  ASHRAEClearSky;                         ! Solar Model Indicator

OS:ComponentData,
  {750df719-d0a7-41e3-aef9-a7d00f85b1b2}, ! Handle
  Component Data 1,                       ! Name
  {04c17aad-6de6-4c74-b8df-fa17a6f5eab9}, ! UUID
  {42334c52-9eb7-4fd7-a86f-2e1f856879aa}, ! Version UUID
  1366310581,                             ! Creation Timestamp
  1366310581,                             ! Version Timestamp
  {e8279b18-03e2-40a6-82da-c84ae92b4b2d}; ! Name of Object 1

