
OS:Version,
  {0920bf0b-d9fd-4643-8349-35cec7a6253e}, ! Handle
  0.9.3;                                  ! Version Identifier

OS:SizingPeriod:DesignDay,
  {7f7395ef-4955-46d0-8f36-c103eedc1ea5}, ! Handle
  Casper Natrona Co Intl Ap Ann Clg .4% Condns Enth=>MDB, ! Name
  28.3,                                   ! Maximum Dry-Bulb Temperature {C}
  18.1,                                   ! Daily Dry-Bulb Temperature Range {deltaC}
  55300,                                  ! Humidity Indicating Conditions at Maximum Dry-Bulb {BasedOnField A3}
  83246,                                  ! Barometric Pressure {Pa}
  5.5,                                    ! Wind Speed {m/s}
  230,                                    ! Wind Direction {deg}
  0,                                      ! Sky Clearness
  0,                                      ! Rain Indicator
  0,                                      ! Snow Indicator
  21,                                     ! Day of Month
  7,                                      ! Month
  SummerDesignDay,                        ! Day Type
  0,                                      ! Daylight Saving Time Indicator
  Enthalpy,                               ! Humidity Indicating Type
  ,                                       ! Humidity Indicating Day Schedule Name
  DefaultMultipliers,                     ! Dry-Bulb Temperature Range Modifier Type
  ,                                       ! Dry-Bulb Temperature Range Modifier Schedule Name
  ASHRAETau,                              ! Solar Model Indicator
  ,                                       ! Beam Solar Day Schedule Name
  ,                                       ! Diffuse Solar Day Schedule Name
  0.411,                                  ! ASHRAE Taub {dimensionless}
  2.017;                                  ! ASHRAE Taud {dimensionless}

OS:ComponentData,
  {488f479e-1a8a-4892-9941-d6c25f126511}, ! Handle
  Component Data 1,                       ! Name
  {5c2a88b6-de3b-4c32-9fdc-dc8c175e859e}, ! UUID
  {f15f79ee-d079-4444-8606-007371d5c22e}, ! Version UUID
  1366311691,                             ! Creation Timestamp
  1366311691,                             ! Version Timestamp
  {7f7395ef-4955-46d0-8f36-c103eedc1ea5}; ! Name of Object 1

