
OS:Version,
  {67c1d8f3-26c1-4933-ad49-5c54b058417b}, ! Handle
  0.9.3;                                  ! Version Identifier

OS:SizingPeriod:DesignDay,
  {d4fc8c53-8815-4866-93c5-56ab2abcf3b7}, ! Handle
  Del Rio/Intl Ap Ann Clg .4% Condns WB=>MDB, ! Name
  31.9,                                   ! Maximum Dry-Bulb Temperature {C}
  11.4,                                   ! Daily Dry-Bulb Temperature Range {deltaC}
  25.3,                                   ! Humidity Indicating Conditions at Maximum Dry-Bulb {BasedOnField A3}
  97458,                                  ! Barometric Pressure {Pa}
  4.8,                                    ! Wind Speed {m/s}
  140,                                    ! Wind Direction {deg}
  0,                                      ! Sky Clearness
  0,                                      ! Rain Indicator
  0,                                      ! Snow Indicator
  21,                                     ! Day of Month
  7,                                      ! Month
  SummerDesignDay,                        ! Day Type
  0,                                      ! Daylight Saving Time Indicator
  Wetbulb,                                ! Humidity Indicating Type
  ,                                       ! Humidity Indicating Day Schedule Name
  DefaultMultipliers,                     ! Dry-Bulb Temperature Range Modifier Type
  ,                                       ! Dry-Bulb Temperature Range Modifier Schedule Name
  ASHRAETau,                              ! Solar Model Indicator
  ,                                       ! Beam Solar Day Schedule Name
  ,                                       ! Diffuse Solar Day Schedule Name
  0.48,                                   ! ASHRAE Taub {dimensionless}
  1.993;                                  ! ASHRAE Taud {dimensionless}

OS:ComponentData,
  {488183ea-83a0-48cf-80ae-7129abca14a4}, ! Handle
  Component Data 1,                       ! Name
  {e6aebea0-8374-47c5-8169-ae97454453b7}, ! UUID
  {d27b47bf-f2c6-4e78-8a9f-a2a4566ab633}, ! Version UUID
  1366310672,                             ! Creation Timestamp
  1366310672,                             ! Version Timestamp
  {d4fc8c53-8815-4866-93c5-56ab2abcf3b7}; ! Name of Object 1

