
OS:Version,
  {d8dcaa86-2562-4b21-93a8-dae6cf5426b7}, ! Handle
  0.9.3;                                  ! Version Identifier

OS:SizingPeriod:DesignDay,
  {c173e8f4-ab68-4e2c-af26-63eacd70953c}, ! Handle
  Lander Hunt Field Ann Htg Wind 99.6% Condns WS=>MCDB, ! Name
  4.5,                                    ! Maximum Dry-Bulb Temperature {C}
  0,                                      ! Daily Dry-Bulb Temperature Range {deltaC}
  4.5,                                    ! Humidity Indicating Conditions at Maximum Dry-Bulb {BasedOnField A3}
  82562,                                  ! Barometric Pressure {Pa}
  12.6,                                   ! Wind Speed {m/s}
  140,                                    ! Wind Direction {deg}
  0,                                      ! Sky Clearness
  0,                                      ! Rain Indicator
  0,                                      ! Snow Indicator
  21,                                     ! Day of Month
  12,                                     ! Month
  WinterDesignDay,                        ! Day Type
  0,                                      ! Daylight Saving Time Indicator
  Wetbulb,                                ! Humidity Indicating Type
  ,                                       ! Humidity Indicating Day Schedule Name
  DefaultMultipliers,                     ! Dry-Bulb Temperature Range Modifier Type
  ,                                       ! Dry-Bulb Temperature Range Modifier Schedule Name
  ASHRAEClearSky;                         ! Solar Model Indicator

OS:ComponentData,
  {7b466b5c-7be2-4aca-80c6-06a80ba1580d}, ! Handle
  Component Data 1,                       ! Name
  {bafdd75b-6c8b-4d6f-b62d-ae13bbc1e4ec}, ! UUID
  {20af7cf7-0fcf-4e13-9bb0-1e8fb9f517dd}, ! Version UUID
  1366311748,                             ! Creation Timestamp
  1366311748,                             ! Version Timestamp
  {c173e8f4-ab68-4e2c-af26-63eacd70953c}; ! Name of Object 1

