
OS:Version,
  {10dda0a9-69de-46be-910d-a33f7f9143ad}, ! Handle
  0.9.3;                                  ! Version Identifier

OS:SizingPeriod:DesignDay,
  {21aa00dc-ed44-428d-b09e-2b4d62ca9085}, ! Handle
  Hartford Brainard Fd Ann Clg .4% Condns Enth=>MDB, ! Name
  29.9,                                   ! Maximum Dry-Bulb Temperature {C}
  9.9,                                    ! Daily Dry-Bulb Temperature Range {deltaC}
  76300,                                  ! Humidity Indicating Conditions at Maximum Dry-Bulb {BasedOnField A3}
  101253,                                 ! Barometric Pressure {Pa}
  4.6,                                    ! Wind Speed {m/s}
  260,                                    ! Wind Direction {deg}
  0,                                      ! Sky Clearness
  0,                                      ! Rain Indicator
  0,                                      ! Snow Indicator
  21,                                     ! Day of Month
  7,                                      ! Month
  SummerDesignDay,                        ! Day Type
  0,                                      ! Daylight Saving Time Indicator
  Enthalpy,                               ! Humidity Indicating Type
  ,                                       ! Humidity Indicating Day Schedule Name
  DefaultMultipliers,                     ! Dry-Bulb Temperature Range Modifier Type
  ,                                       ! Dry-Bulb Temperature Range Modifier Schedule Name
  ASHRAETau,                              ! Solar Model Indicator
  ,                                       ! Beam Solar Day Schedule Name
  ,                                       ! Diffuse Solar Day Schedule Name
  0.496,                                  ! ASHRAE Taub {dimensionless}
  1.916;                                  ! ASHRAE Taud {dimensionless}

OS:ComponentData,
  {f5302a7d-2a05-4af0-a66a-fbf212389a2b}, ! Handle
  Component Data 1,                       ! Name
  {6f5f4f66-bb71-47e7-baf8-642064a8d56b}, ! UUID
  {114f7096-c132-4dd2-a1fe-0d6c92ae602d}, ! Version UUID
  1366306761,                             ! Creation Timestamp
  1366306761,                             ! Version Timestamp
  {21aa00dc-ed44-428d-b09e-2b4d62ca9085}; ! Name of Object 1

