
OS:Version,
  {0b9dfa0b-7757-4242-9c5b-5079ffabb0bf}, ! Handle
  0.9.3;                                  ! Version Identifier

OS:SizingPeriod:DesignDay,
  {ec1e381e-529b-450f-85e6-92bde5823e28}, ! Handle
  Allentown Lehigh Valley Intl Ann Hum_n 99% Condns DP=>MCDB, ! Name
  -9.5,                                   ! Maximum Dry-Bulb Temperature {C}
  0,                                      ! Daily Dry-Bulb Temperature Range {deltaC}
  -18.8,                                  ! Humidity Indicating Conditions at Maximum Dry-Bulb {BasedOnField A3}
  99904,                                  ! Barometric Pressure {Pa}
  4,                                      ! Wind Speed {m/s}
  330,                                    ! Wind Direction {deg}
  0,                                      ! Sky Clearness
  0,                                      ! Rain Indicator
  0,                                      ! Snow Indicator
  21,                                     ! Day of Month
  1,                                      ! Month
  WinterDesignDay,                        ! Day Type
  0,                                      ! Daylight Saving Time Indicator
  Dewpoint,                               ! Humidity Indicating Type
  ,                                       ! Humidity Indicating Day Schedule Name
  DefaultMultipliers,                     ! Dry-Bulb Temperature Range Modifier Type
  ,                                       ! Dry-Bulb Temperature Range Modifier Schedule Name
  ASHRAEClearSky;                         ! Solar Model Indicator

OS:ComponentData,
  {e85cb18a-feb3-4fb4-8957-bfabc7437035}, ! Handle
  Component Data 1,                       ! Name
  {c6e76c36-8388-4f61-8dc0-aae291fee32d}, ! UUID
  {14aeffab-a8c1-490c-b285-2902ff8620ac}, ! Version UUID
  1366310131,                             ! Creation Timestamp
  1366310131,                             ! Version Timestamp
  {ec1e381e-529b-450f-85e6-92bde5823e28}; ! Name of Object 1

