
OS:Version,
  {3658f2fb-e620-4922-8588-caccb6a7a6c6}, ! Handle
  0.9.3;                                  ! Version Identifier

OS:SizingPeriod:DesignDay,
  {8abab8ca-eb16-4b8b-9e5d-bf03db29c2ab}, ! Handle
  GREAT_FALLS Ann Hum_n 99% Condns DP=>MCDB, ! Name
  -23.3,                                  ! Maximum Dry-Bulb Temperature {C}
  0,                                      ! Daily Dry-Bulb Temperature Range {deltaC}
  -27.1,                                  ! Humidity Indicating Conditions at Maximum Dry-Bulb {BasedOnField A3}
  88617,                                  ! Barometric Pressure {Pa}
  2,                                      ! Wind Speed {m/s}
  40,                                     ! Wind Direction {deg}
  0,                                      ! Sky Clearness
  0,                                      ! Rain Indicator
  0,                                      ! Snow Indicator
  21,                                     ! Day of Month
  1,                                      ! Month
  WinterDesignDay,                        ! Day Type
  0,                                      ! Daylight Saving Time Indicator
  Dewpoint,                               ! Humidity Indicating Type
  ,                                       ! Humidity Indicating Day Schedule Name
  DefaultMultipliers,                     ! Dry-Bulb Temperature Range Modifier Type
  ,                                       ! Dry-Bulb Temperature Range Modifier Schedule Name
  ASHRAEClearSky;                         ! Solar Model Indicator

OS:ComponentData,
  {bec5fb20-1c1a-4695-95b3-d432c5041e55}, ! Handle
  Component Data 1,                       ! Name
  {af668bfb-6c69-4d6b-8235-d931dcba1428}, ! UUID
  {c6c7e811-7137-4660-95ad-7873b819ff42}, ! Version UUID
  1366308771,                             ! Creation Timestamp
  1366308771,                             ! Version Timestamp
  {8abab8ca-eb16-4b8b-9e5d-bf03db29c2ab}; ! Name of Object 1

