
OS:Version,
  {84aa93ff-a3ee-4216-9aa0-cc8af2e03433}, ! Handle
  0.9.3;                                  ! Version Identifier

OS:SizingPeriod:DesignDay,
  {eeddcd1d-7cc8-4a2f-88ee-81a909b9f461}, ! Handle
  Lander Hunt Field Ann Htg 99.6% Condns DB, ! Name
  -22.9,                                  ! Maximum Dry-Bulb Temperature {C}
  0,                                      ! Daily Dry-Bulb Temperature Range {deltaC}
  -22.9,                                  ! Humidity Indicating Conditions at Maximum Dry-Bulb {BasedOnField A3}
  82562,                                  ! Barometric Pressure {Pa}
  1.1,                                    ! Wind Speed {m/s}
  140,                                    ! Wind Direction {deg}
  0,                                      ! Sky Clearness
  0,                                      ! Rain Indicator
  0,                                      ! Snow Indicator
  21,                                     ! Day of Month
  12,                                     ! Month
  WinterDesignDay,                        ! Day Type
  0,                                      ! Daylight Saving Time Indicator
  Wetbulb,                                ! Humidity Indicating Type
  ,                                       ! Humidity Indicating Day Schedule Name
  DefaultMultipliers,                     ! Dry-Bulb Temperature Range Modifier Type
  ,                                       ! Dry-Bulb Temperature Range Modifier Schedule Name
  ASHRAEClearSky;                         ! Solar Model Indicator

OS:ComponentData,
  {c068bea3-4b57-49bb-9a7f-ce938883c091}, ! Handle
  Component Data 1,                       ! Name
  {5bf4607d-f0b4-429e-a688-1c5e676af4ba}, ! UUID
  {68891473-a25b-4480-b2d6-1e0bf7aa6fe6}, ! Version UUID
  1366311748,                             ! Creation Timestamp
  1366311748,                             ! Version Timestamp
  {eeddcd1d-7cc8-4a2f-88ee-81a909b9f461}; ! Name of Object 1

