
OS:Version,
  {203f01f7-02be-4e13-a9ce-9acc95c31820}, ! Handle
  0.9.3;                                  ! Version Identifier

OS:SizingPeriod:DesignDay,
  {085df541-c9bf-4ff0-8dbc-950ad20785c8}, ! Handle
  ELKINS Ann Clg .4% Condns DB=>MWB,      ! Name
  30.4,                                   ! Maximum Dry-Bulb Temperature {C}
  12,                                     ! Daily Dry-Bulb Temperature Range {deltaC}
  21.4,                                   ! Humidity Indicating Conditions at Maximum Dry-Bulb {BasedOnField A3}
  94390,                                  ! Barometric Pressure {Pa}
  3.2,                                    ! Wind Speed {m/s}
  300,                                    ! Wind Direction {deg}
  0,                                      ! Sky Clearness
  0,                                      ! Rain Indicator
  0,                                      ! Snow Indicator
  21,                                     ! Day of Month
  7,                                      ! Month
  SummerDesignDay,                        ! Day Type
  0,                                      ! Daylight Saving Time Indicator
  Wetbulb,                                ! Humidity Indicating Type
  ,                                       ! Humidity Indicating Day Schedule Name
  DefaultMultipliers,                     ! Dry-Bulb Temperature Range Modifier Type
  ,                                       ! Dry-Bulb Temperature Range Modifier Schedule Name
  ASHRAETau,                              ! Solar Model Indicator
  ,                                       ! Beam Solar Day Schedule Name
  ,                                       ! Diffuse Solar Day Schedule Name
  0.489,                                  ! ASHRAE Taub {dimensionless}
  1.911;                                  ! ASHRAE Taud {dimensionless}

OS:ComponentData,
  {a98ec271-7f17-4968-8275-fe0393fbef86}, ! Handle
  Component Data 1,                       ! Name
  {667c684f-ba01-461c-af30-47e1eae0782d}, ! UUID
  {3e9c31dc-d1c5-4b63-88f1-316d741f7186}, ! Version UUID
  1366311646,                             ! Creation Timestamp
  1366311646,                             ! Version Timestamp
  {085df541-c9bf-4ff0-8dbc-950ad20785c8}; ! Name of Object 1

