
OS:Version,
  {83b1f91d-593d-4574-8b1f-21e74bb07674}, ! Handle
  0.9.3;                                  ! Version Identifier

OS:SizingPeriod:DesignDay,
  {23833b98-0072-4037-8299-7a3cc48ce0ba}, ! Handle
  AUSTIN Ann Htg 99% Condns DB,           ! Name
  -1.3,                                   ! Maximum Dry-Bulb Temperature {C}
  0,                                      ! Daily Dry-Bulb Temperature Range {deltaC}
  -1.3,                                   ! Humidity Indicating Conditions at Maximum Dry-Bulb {BasedOnField A3}
  99075,                                  ! Barometric Pressure {Pa}
  3.2,                                    ! Wind Speed {m/s}
  10,                                     ! Wind Direction {deg}
  0,                                      ! Sky Clearness
  0,                                      ! Rain Indicator
  0,                                      ! Snow Indicator
  21,                                     ! Day of Month
  1,                                      ! Month
  WinterDesignDay,                        ! Day Type
  0,                                      ! Daylight Saving Time Indicator
  Wetbulb,                                ! Humidity Indicating Type
  ,                                       ! Humidity Indicating Day Schedule Name
  DefaultMultipliers,                     ! Dry-Bulb Temperature Range Modifier Type
  ,                                       ! Dry-Bulb Temperature Range Modifier Schedule Name
  ASHRAEClearSky;                         ! Solar Model Indicator

OS:ComponentData,
  {c197f1c0-058d-4dea-9d8a-686e7eedd5d0}, ! Handle
  Component Data 1,                       ! Name
  {8c4a4d7b-b5de-4397-8acb-d924242e6883}, ! UUID
  {446c06a6-253d-44f8-b982-badd90e8b34d}, ! Version UUID
  1366310589,                             ! Creation Timestamp
  1366310589,                             ! Version Timestamp
  {23833b98-0072-4037-8299-7a3cc48ce0ba}; ! Name of Object 1

