
OS:Version,
  {5b68122c-2923-4edb-aeef-9d318579b9fd}, ! Handle
  0.9.3;                                  ! Version Identifier

OS:SizingPeriod:DesignDay,
  {bfa2ceee-4bd5-4a26-a5a0-80c3fdd792c4}, ! Handle
  COLUMBUS Ann Clg 2% Condns Enth=>MDB,   ! Name
  28,                                     ! Maximum Dry-Bulb Temperature {C}
  10.5,                                   ! Daily Dry-Bulb Temperature Range {deltaC}
  70200,                                  ! Humidity Indicating Conditions at Maximum Dry-Bulb {BasedOnField A3}
  98311,                                  ! Barometric Pressure {Pa}
  4.3,                                    ! Wind Speed {m/s}
  240,                                    ! Wind Direction {deg}
  0,                                      ! Sky Clearness
  0,                                      ! Rain Indicator
  0,                                      ! Snow Indicator
  21,                                     ! Day of Month
  7,                                      ! Month
  SummerDesignDay,                        ! Day Type
  0,                                      ! Daylight Saving Time Indicator
  Enthalpy,                               ! Humidity Indicating Type
  ,                                       ! Humidity Indicating Day Schedule Name
  DefaultMultipliers,                     ! Dry-Bulb Temperature Range Modifier Type
  ,                                       ! Dry-Bulb Temperature Range Modifier Schedule Name
  ASHRAETau,                              ! Solar Model Indicator
  ,                                       ! Beam Solar Day Schedule Name
  ,                                       ! Diffuse Solar Day Schedule Name
  0.484,                                  ! ASHRAE Taub {dimensionless}
  1.943;                                  ! ASHRAE Taud {dimensionless}

OS:ComponentData,
  {9e3cbf04-8eb9-49b8-ae49-734dd79e420e}, ! Handle
  Component Data 1,                       ! Name
  {9bdf7c86-7881-4b6c-b8a0-90c8c32ea153}, ! UUID
  {4964b0f1-6316-4f16-b1bf-137434a1b3ba}, ! Version UUID
  1366309805,                             ! Creation Timestamp
  1366309805,                             ! Version Timestamp
  {bfa2ceee-4bd5-4a26-a5a0-80c3fdd792c4}; ! Name of Object 1

