
OS:Version,
  {d00dbfbd-71b0-4f72-8bca-2742e5f0d1b7}, ! Handle
  0.9.3;                                  ! Version Identifier

OS:SizingPeriod:DesignDay,
  {3ed935f8-a0b8-479d-b7e6-7407628c2d3e}, ! Handle
  Langley Afb Ann Clg .4% Condns Enth=>MDB, ! Name
  31.1,                                   ! Maximum Dry-Bulb Temperature {C}
  8.3,                                    ! Daily Dry-Bulb Temperature Range {deltaC}
  83200,                                  ! Humidity Indicating Conditions at Maximum Dry-Bulb {BasedOnField A3}
  101289,                                 ! Barometric Pressure {Pa}
  4.2,                                    ! Wind Speed {m/s}
  240,                                    ! Wind Direction {deg}
  0,                                      ! Sky Clearness
  0,                                      ! Rain Indicator
  0,                                      ! Snow Indicator
  21,                                     ! Day of Month
  7,                                      ! Month
  SummerDesignDay,                        ! Day Type
  0,                                      ! Daylight Saving Time Indicator
  Enthalpy,                               ! Humidity Indicating Type
  ,                                       ! Humidity Indicating Day Schedule Name
  DefaultMultipliers,                     ! Dry-Bulb Temperature Range Modifier Type
  ,                                       ! Dry-Bulb Temperature Range Modifier Schedule Name
  ASHRAETau,                              ! Solar Model Indicator
  ,                                       ! Beam Solar Day Schedule Name
  ,                                       ! Diffuse Solar Day Schedule Name
  0.596,                                  ! ASHRAE Taub {dimensionless}
  1.685;                                  ! ASHRAE Taud {dimensionless}

OS:ComponentData,
  {1afe65b7-c954-4396-afd8-d3beaad0dc2d}, ! Handle
  Component Data 1,                       ! Name
  {dc205c1a-4540-4f5f-8d5b-01bc3451a017}, ! UUID
  {a33f0481-a40e-40de-8023-4bbe2e0b8fed}, ! Version UUID
  1366311072,                             ! Creation Timestamp
  1366311072,                             ! Version Timestamp
  {3ed935f8-a0b8-479d-b7e6-7407628c2d3e}; ! Name of Object 1

