
OS:Version,
  {bbd6e553-fd66-4662-be74-d581b9be7df4}, ! Handle
  0.9.3;                                  ! Version Identifier

OS:SizingPeriod:DesignDay,
  {96bd0f6f-1375-427c-8d45-cced0e9ec9a7}, ! Handle
  Cherry Point MCAS Ann Clg .4% Condns WB=>MDB, ! Name
  31.9,                                   ! Maximum Dry-Bulb Temperature {C}
  8.7,                                    ! Daily Dry-Bulb Temperature Range {deltaC}
  27.1,                                   ! Humidity Indicating Conditions at Maximum Dry-Bulb {BasedOnField A3}
  101193,                                 ! Barometric Pressure {Pa}
  3.4,                                    ! Wind Speed {m/s}
  210,                                    ! Wind Direction {deg}
  0,                                      ! Sky Clearness
  0,                                      ! Rain Indicator
  0,                                      ! Snow Indicator
  21,                                     ! Day of Month
  7,                                      ! Month
  SummerDesignDay,                        ! Day Type
  0,                                      ! Daylight Saving Time Indicator
  Wetbulb,                                ! Humidity Indicating Type
  ,                                       ! Humidity Indicating Day Schedule Name
  DefaultMultipliers,                     ! Dry-Bulb Temperature Range Modifier Type
  ,                                       ! Dry-Bulb Temperature Range Modifier Schedule Name
  ASHRAETau,                              ! Solar Model Indicator
  ,                                       ! Beam Solar Day Schedule Name
  ,                                       ! Diffuse Solar Day Schedule Name
  0.581,                                  ! ASHRAE Taub {dimensionless}
  1.748;                                  ! ASHRAE Taud {dimensionless}

OS:ComponentData,
  {bc29e614-4c9e-418a-8e00-1c32a02cc787}, ! Handle
  Component Data 1,                       ! Name
  {0b4f5d02-ec66-43ff-874a-c5be91dd7549}, ! UUID
  {006c826a-8021-4b4a-b2ed-a9b558012646}, ! Version UUID
  1366308898,                             ! Creation Timestamp
  1366308898,                             ! Version Timestamp
  {96bd0f6f-1375-427c-8d45-cced0e9ec9a7}; ! Name of Object 1

