
OS:Version,
  {ba0bd494-e8fe-4a4f-88b5-b585600bde13}, ! Handle
  0.9.3;                                  ! Version Identifier

OS:SizingPeriod:DesignDay,
  {10dc2c22-8107-45c3-9b01-281d75adb578}, ! Handle
  Dinwiddie Co Ann Clg 1% Condns DP=>MDB, ! Name
  29,                                     ! Maximum Dry-Bulb Temperature {C}
  12.5,                                   ! Daily Dry-Bulb Temperature Range {deltaC}
  24.1,                                   ! Humidity Indicating Conditions at Maximum Dry-Bulb {BasedOnField A3}
  100606,                                 ! Barometric Pressure {Pa}
  3,                                      ! Wind Speed {m/s}
  240,                                    ! Wind Direction {deg}
  0,                                      ! Sky Clearness
  0,                                      ! Rain Indicator
  0,                                      ! Snow Indicator
  21,                                     ! Day of Month
  7,                                      ! Month
  SummerDesignDay,                        ! Day Type
  0,                                      ! Daylight Saving Time Indicator
  Dewpoint,                               ! Humidity Indicating Type
  ,                                       ! Humidity Indicating Day Schedule Name
  DefaultMultipliers,                     ! Dry-Bulb Temperature Range Modifier Type
  ,                                       ! Dry-Bulb Temperature Range Modifier Schedule Name
  ASHRAETau,                              ! Solar Model Indicator
  ,                                       ! Beam Solar Day Schedule Name
  ,                                       ! Diffuse Solar Day Schedule Name
  0.569,                                  ! ASHRAE Taub {dimensionless}
  1.737;                                  ! ASHRAE Taud {dimensionless}

OS:ComponentData,
  {3243ca4d-9754-45c6-ac29-17059a64eab1}, ! Handle
  Component Data 1,                       ! Name
  {ea332013-03a8-4687-98e5-61152ad690d0}, ! UUID
  {42fed8d3-7e0d-48dc-9c10-639e7e649fa5}, ! Version UUID
  1366311152,                             ! Creation Timestamp
  1366311152,                             ! Version Timestamp
  {10dc2c22-8107-45c3-9b01-281d75adb578}; ! Name of Object 1

