
OS:Version,
  {84b2ccb0-7b7a-44bd-a11c-926ed13d2167}, ! Handle
  0.9.3;                                  ! Version Identifier

OS:SizingPeriod:DesignDay,
  {0dcfe55c-5ef7-4ea7-896d-4535115a51c6}, ! Handle
  London Corbin Ap Ann Clg 1% Condns WB=>MDB, ! Name
  28.9,                                   ! Maximum Dry-Bulb Temperature {C}
  10.4,                                   ! Daily Dry-Bulb Temperature Range {deltaC}
  24.1,                                   ! Humidity Indicating Conditions at Maximum Dry-Bulb {BasedOnField A3}
  97051,                                  ! Barometric Pressure {Pa}
  3.2,                                    ! Wind Speed {m/s}
  250,                                    ! Wind Direction {deg}
  0,                                      ! Sky Clearness
  0,                                      ! Rain Indicator
  0,                                      ! Snow Indicator
  21,                                     ! Day of Month
  7,                                      ! Month
  SummerDesignDay,                        ! Day Type
  0,                                      ! Daylight Saving Time Indicator
  Wetbulb,                                ! Humidity Indicating Type
  ,                                       ! Humidity Indicating Day Schedule Name
  DefaultMultipliers,                     ! Dry-Bulb Temperature Range Modifier Type
  ,                                       ! Dry-Bulb Temperature Range Modifier Schedule Name
  ASHRAETau,                              ! Solar Model Indicator
  ,                                       ! Beam Solar Day Schedule Name
  ,                                       ! Diffuse Solar Day Schedule Name
  0.51,                                   ! ASHRAE Taub {dimensionless}
  1.864;                                  ! ASHRAE Taud {dimensionless}

OS:ComponentData,
  {3dd770e6-a657-43bd-bdfd-b5d11bfe4204}, ! Handle
  Component Data 1,                       ! Name
  {ec74d2e6-0ea1-417f-9d45-e4ea2ac3fa15}, ! UUID
  {ddd88a23-ca14-4e95-8ae2-53fe5a881043}, ! Version UUID
  1366307660,                             ! Creation Timestamp
  1366307660,                             ! Version Timestamp
  {0dcfe55c-5ef7-4ea7-896d-4535115a51c6}; ! Name of Object 1

