
OS:Version,
  {4f7ca312-d3b5-42e0-8f10-e23b00801452}, ! Handle
  0.9.3;                                  ! Version Identifier

OS:SizingPeriod:DesignDay,
  {9ed5f613-627e-4aee-ba7b-5c4ae0f8187f}, ! Handle
  Apalachicola Ann Clg 1% Condns DB=>MWB, ! Name
  32.4,                                   ! Maximum Dry-Bulb Temperature {C}
  7.6,                                    ! Daily Dry-Bulb Temperature Range {deltaC}
  25.7,                                   ! Humidity Indicating Conditions at Maximum Dry-Bulb {BasedOnField A3}
  101253,                                 ! Barometric Pressure {Pa}
  4.2,                                    ! Wind Speed {m/s}
  230,                                    ! Wind Direction {deg}
  0,                                      ! Sky Clearness
  0,                                      ! Rain Indicator
  0,                                      ! Snow Indicator
  21,                                     ! Day of Month
  8,                                      ! Month
  SummerDesignDay,                        ! Day Type
  0,                                      ! Daylight Saving Time Indicator
  Wetbulb,                                ! Humidity Indicating Type
  ,                                       ! Humidity Indicating Day Schedule Name
  DefaultMultipliers,                     ! Dry-Bulb Temperature Range Modifier Type
  ,                                       ! Dry-Bulb Temperature Range Modifier Schedule Name
  ASHRAETau,                              ! Solar Model Indicator
  ,                                       ! Beam Solar Day Schedule Name
  ,                                       ! Diffuse Solar Day Schedule Name
  0.51,                                   ! ASHRAE Taub {dimensionless}
  1.98;                                   ! ASHRAE Taud {dimensionless}

OS:ComponentData,
  {89aa2cc1-a449-4a22-a00d-16e6ee0029fa}, ! Handle
  Component Data 1,                       ! Name
  {81f2d593-236d-46da-ad01-c88b09e270ce}, ! UUID
  {4e7e1043-c699-4849-895d-0fc148def67a}, ! Version UUID
  1366306782,                             ! Creation Timestamp
  1366306782,                             ! Version Timestamp
  {9ed5f613-627e-4aee-ba7b-5c4ae0f8187f}; ! Name of Object 1

