
OS:Version,
  {d7c1030d-cee2-479e-a3e6-1b3e5393f348}, ! Handle
  0.9.3;                                  ! Version Identifier

OS:SizingPeriod:DesignDay,
  {9954bc94-c3ee-4992-98e3-a7cb31c58e66}, ! Handle
  Florence Regional Ap Ann Clg 2% Condns Enth=>MDB, ! Name
  30.9,                                   ! Maximum Dry-Bulb Temperature {C}
  10.6,                                   ! Daily Dry-Bulb Temperature Range {deltaC}
  77200,                                  ! Humidity Indicating Conditions at Maximum Dry-Bulb {BasedOnField A3}
  100798,                                 ! Barometric Pressure {Pa}
  4.1,                                    ! Wind Speed {m/s}
  230,                                    ! Wind Direction {deg}
  0,                                      ! Sky Clearness
  0,                                      ! Rain Indicator
  0,                                      ! Snow Indicator
  21,                                     ! Day of Month
  7,                                      ! Month
  SummerDesignDay,                        ! Day Type
  0,                                      ! Daylight Saving Time Indicator
  Enthalpy,                               ! Humidity Indicating Type
  ,                                       ! Humidity Indicating Day Schedule Name
  DefaultMultipliers,                     ! Dry-Bulb Temperature Range Modifier Type
  ,                                       ! Dry-Bulb Temperature Range Modifier Schedule Name
  ASHRAETau,                              ! Solar Model Indicator
  ,                                       ! Beam Solar Day Schedule Name
  ,                                       ! Diffuse Solar Day Schedule Name
  0.573,                                  ! ASHRAE Taub {dimensionless}
  1.746;                                  ! ASHRAE Taud {dimensionless}

OS:ComponentData,
  {e7f1b289-5b21-489d-9042-5253ad57c5a7}, ! Handle
  Component Data 1,                       ! Name
  {a8ff1ec2-350f-48b8-8f71-6ca822030a16}, ! UUID
  {59370df6-7829-4b99-b42f-fa4842427910}, ! Version UUID
  1366310353,                             ! Creation Timestamp
  1366310353,                             ! Version Timestamp
  {9954bc94-c3ee-4992-98e3-a7cb31c58e66}; ! Name of Object 1

