
OS:Version,
  {863845f4-7e1c-4efc-a773-3177d35df902}, ! Handle
  0.9.3;                                  ! Version Identifier

OS:SizingPeriod:DesignDay,
  {a4e54db4-ca4f-45c8-8096-536b869c0848}, ! Handle
  Akron/Canton Ann Htg 99% Condns DB,     ! Name
  -13.8,                                  ! Maximum Dry-Bulb Temperature {C}
  0,                                      ! Daily Dry-Bulb Temperature Range {deltaC}
  -13.8,                                  ! Humidity Indicating Conditions at Maximum Dry-Bulb {BasedOnField A3}
  96877,                                  ! Barometric Pressure {Pa}
  4.6,                                    ! Wind Speed {m/s}
  240,                                    ! Wind Direction {deg}
  0,                                      ! Sky Clearness
  0,                                      ! Rain Indicator
  0,                                      ! Snow Indicator
  21,                                     ! Day of Month
  1,                                      ! Month
  WinterDesignDay,                        ! Day Type
  0,                                      ! Daylight Saving Time Indicator
  Wetbulb,                                ! Humidity Indicating Type
  ,                                       ! Humidity Indicating Day Schedule Name
  DefaultMultipliers,                     ! Dry-Bulb Temperature Range Modifier Type
  ,                                       ! Dry-Bulb Temperature Range Modifier Schedule Name
  ASHRAEClearSky;                         ! Solar Model Indicator

OS:ComponentData,
  {e6d0657c-9c79-461c-9755-dfb24ce460ce}, ! Handle
  Component Data 1,                       ! Name
  {3cf6b097-3a6a-4aa8-a31e-95edacd02c25}, ! UUID
  {98ff0e55-d16b-405e-ad9a-70f7771ee525}, ! Version UUID
  1366309764,                             ! Creation Timestamp
  1366309764,                             ! Version Timestamp
  {a4e54db4-ca4f-45c8-8096-536b869c0848}; ! Name of Object 1

