
OS:Version,
  {3f813e22-465b-4364-bd98-6b1aeaa9fa62}, ! Handle
  0.9.3;                                  ! Version Identifier

OS:SizingPeriod:DesignDay,
  {fec042bd-6a9b-4f38-8434-8263ea9da6be}, ! Handle
  Dallas Love Field Ann Hum_n 99.6% Condns DP=>MCDB, ! Name
  -1.8,                                   ! Maximum Dry-Bulb Temperature {C}
  0,                                      ! Daily Dry-Bulb Temperature Range {deltaC}
  -13.3,                                  ! Humidity Indicating Conditions at Maximum Dry-Bulb {BasedOnField A3}
  99726,                                  ! Barometric Pressure {Pa}
  4.9,                                    ! Wind Speed {m/s}
  0,                                      ! Wind Direction {deg}
  0,                                      ! Sky Clearness
  0,                                      ! Rain Indicator
  0,                                      ! Snow Indicator
  21,                                     ! Day of Month
  1,                                      ! Month
  WinterDesignDay,                        ! Day Type
  0,                                      ! Daylight Saving Time Indicator
  Dewpoint,                               ! Humidity Indicating Type
  ,                                       ! Humidity Indicating Day Schedule Name
  DefaultMultipliers,                     ! Dry-Bulb Temperature Range Modifier Type
  ,                                       ! Dry-Bulb Temperature Range Modifier Schedule Name
  ASHRAEClearSky;                         ! Solar Model Indicator

OS:ComponentData,
  {5ce5dfd6-4192-483c-ba6c-9eeafacb22ff}, ! Handle
  Component Data 1,                       ! Name
  {0ffd522d-517c-4db9-aa8b-782a2e2ec827}, ! UUID
  {a2882e84-b704-4c2e-9a3e-553e170cc6f0}, ! Version UUID
  1366310659,                             ! Creation Timestamp
  1366310659,                             ! Version Timestamp
  {fec042bd-6a9b-4f38-8434-8263ea9da6be}; ! Name of Object 1

