
OS:Version,
  {9b88e3c5-f731-44af-af4c-b88446e6ca12}, ! Handle
  0.9.3;                                  ! Version Identifier

OS:SizingPeriod:DesignDay,
  {f3303f53-b9b0-4f93-88f3-18f19ed6abbc}, ! Handle
  Del Rio  Ut Ann Clg .4% Condns WB=>MDB, ! Name
  31.9,                                   ! Maximum Dry-Bulb Temperature {C}
  11.4,                                   ! Daily Dry-Bulb Temperature Range {deltaC}
  25.3,                                   ! Humidity Indicating Conditions at Maximum Dry-Bulb {BasedOnField A3}
  97679,                                  ! Barometric Pressure {Pa}
  4.8,                                    ! Wind Speed {m/s}
  140,                                    ! Wind Direction {deg}
  0,                                      ! Sky Clearness
  0,                                      ! Rain Indicator
  0,                                      ! Snow Indicator
  21,                                     ! Day of Month
  7,                                      ! Month
  SummerDesignDay,                        ! Day Type
  0,                                      ! Daylight Saving Time Indicator
  Wetbulb,                                ! Humidity Indicating Type
  ,                                       ! Humidity Indicating Day Schedule Name
  DefaultMultipliers,                     ! Dry-Bulb Temperature Range Modifier Type
  ,                                       ! Dry-Bulb Temperature Range Modifier Schedule Name
  ASHRAETau,                              ! Solar Model Indicator
  ,                                       ! Beam Solar Day Schedule Name
  ,                                       ! Diffuse Solar Day Schedule Name
  0.48,                                   ! ASHRAE Taub {dimensionless}
  1.993;                                  ! ASHRAE Taud {dimensionless}

OS:ComponentData,
  {80f2c047-d15a-4107-b6c4-2273522a5f8d}, ! Handle
  Component Data 1,                       ! Name
  {187229a6-ffa6-4deb-aed9-644e36927e6e}, ! UUID
  {b5c81158-dc1d-4e81-ad51-49e53b853196}, ! Version UUID
  1366310676,                             ! Creation Timestamp
  1366310676,                             ! Version Timestamp
  {f3303f53-b9b0-4f93-88f3-18f19ed6abbc}; ! Name of Object 1

