
OS:Version,
  {96a11248-0f89-474f-8823-19f38ed5ee95}, ! Handle
  0.9.3;                                  ! Version Identifier

OS:SizingPeriod:DesignDay,
  {65431634-25ae-4a24-8e09-bc1e4254ff93}, ! Handle
  BUFFALO Ann Htg Wind 99% Condns WS=>MCDB, ! Name
  -2.9,                                   ! Maximum Dry-Bulb Temperature {C}
  0,                                      ! Daily Dry-Bulb Temperature Range {deltaC}
  -2.9,                                   ! Humidity Indicating Conditions at Maximum Dry-Bulb {BasedOnField A3}
  98769,                                  ! Barometric Pressure {Pa}
  14.6,                                   ! Wind Speed {m/s}
  270,                                    ! Wind Direction {deg}
  0,                                      ! Sky Clearness
  0,                                      ! Rain Indicator
  0,                                      ! Snow Indicator
  21,                                     ! Day of Month
  1,                                      ! Month
  WinterDesignDay,                        ! Day Type
  0,                                      ! Daylight Saving Time Indicator
  Wetbulb,                                ! Humidity Indicating Type
  ,                                       ! Humidity Indicating Day Schedule Name
  DefaultMultipliers,                     ! Dry-Bulb Temperature Range Modifier Type
  ,                                       ! Dry-Bulb Temperature Range Modifier Schedule Name
  ASHRAEClearSky;                         ! Solar Model Indicator

OS:ComponentData,
  {d196ff1f-d4b3-45f4-8eda-11d727de05e0}, ! Handle
  Component Data 1,                       ! Name
  {4664238c-48aa-42b4-878b-7e726bb258ad}, ! UUID
  {a42c9dce-0430-48b3-8bde-0f22c0212485}, ! Version UUID
  1366309612,                             ! Creation Timestamp
  1366309612,                             ! Version Timestamp
  {65431634-25ae-4a24-8e09-bc1e4254ff93}; ! Name of Object 1

