
OS:Version,
  {430dea39-7d76-4904-8ab0-56eb1b39023b}, ! Handle
  0.9.3;                                  ! Version Identifier

OS:SizingPeriod:DesignDay,
  {e69a6a13-6f3a-4fc6-b244-40366df4ec13}, ! Handle
  Brewster Field Arpt Ann Clg 1% Condns DB=>MWB, ! Name
  33.1,                                   ! Maximum Dry-Bulb Temperature {C}
  12.5,                                   ! Daily Dry-Bulb Temperature Range {deltaC}
  21.8,                                   ! Humidity Indicating Conditions at Maximum Dry-Bulb {BasedOnField A3}
  93149,                                  ! Barometric Pressure {Pa}
  5.5,                                    ! Wind Speed {m/s}
  180,                                    ! Wind Direction {deg}
  0,                                      ! Sky Clearness
  0,                                      ! Rain Indicator
  0,                                      ! Snow Indicator
  21,                                     ! Day of Month
  7,                                      ! Month
  SummerDesignDay,                        ! Day Type
  0,                                      ! Daylight Saving Time Indicator
  Wetbulb,                                ! Humidity Indicating Type
  ,                                       ! Humidity Indicating Day Schedule Name
  DefaultMultipliers,                     ! Dry-Bulb Temperature Range Modifier Type
  ,                                       ! Dry-Bulb Temperature Range Modifier Schedule Name
  ASHRAETau,                              ! Solar Model Indicator
  ,                                       ! Beam Solar Day Schedule Name
  ,                                       ! Diffuse Solar Day Schedule Name
  0.401,                                  ! ASHRAE Taub {dimensionless}
  2.224;                                  ! ASHRAE Taud {dimensionless}

OS:ComponentData,
  {65f6022d-dd0f-48ee-b313-d6c5e4f9123a}, ! Handle
  Component Data 1,                       ! Name
  {a298d13a-057a-4eaf-addc-171f0ca5d03e}, ! UUID
  {2fb9265f-6897-4f6f-b7fb-72547b1b6191}, ! Version UUID
  1366309129,                             ! Creation Timestamp
  1366309129,                             ! Version Timestamp
  {e69a6a13-6f3a-4fc6-b244-40366df4ec13}; ! Name of Object 1

