
OS:Version,
  {e31ef75e-c8a2-4a36-b5a3-4a2ac36f69f0}, ! Handle
  0.9.3;                                  ! Version Identifier

OS:SizingPeriod:DesignDay,
  {f4eba503-859b-4305-bd71-d6377f5b7886}, ! Handle
  Asheville Regional Arpt Ann Htg 99.6% Condns DB, ! Name
  -10.2,                                  ! Maximum Dry-Bulb Temperature {C}
  0,                                      ! Daily Dry-Bulb Temperature Range {deltaC}
  -10.2,                                  ! Humidity Indicating Conditions at Maximum Dry-Bulb {BasedOnField A3}
  93734,                                  ! Barometric Pressure {Pa}
  5.4,                                    ! Wind Speed {m/s}
  340,                                    ! Wind Direction {deg}
  0,                                      ! Sky Clearness
  0,                                      ! Rain Indicator
  0,                                      ! Snow Indicator
  21,                                     ! Day of Month
  1,                                      ! Month
  WinterDesignDay,                        ! Day Type
  0,                                      ! Daylight Saving Time Indicator
  Wetbulb,                                ! Humidity Indicating Type
  ,                                       ! Humidity Indicating Day Schedule Name
  DefaultMultipliers,                     ! Dry-Bulb Temperature Range Modifier Type
  ,                                       ! Dry-Bulb Temperature Range Modifier Schedule Name
  ASHRAEClearSky;                         ! Solar Model Indicator

OS:ComponentData,
  {145ad32d-5285-460b-b332-37c1be96f239}, ! Handle
  Component Data 1,                       ! Name
  {05c7514e-91e1-44cf-af77-443373cac412}, ! UUID
  {87a1b213-0089-46f3-b2df-97db9500b890}, ! Version UUID
  1366308867,                             ! Creation Timestamp
  1366308867,                             ! Version Timestamp
  {f4eba503-859b-4305-bd71-d6377f5b7886}; ! Name of Object 1

