
OS:Version,
  {58722845-9371-432d-86e7-3735b2cf6749}, ! Handle
  0.9.3;                                  ! Version Identifier

OS:SizingPeriod:DesignDay,
  {80c18034-0e81-4f97-9dd9-2746b5ebc749}, ! Handle
  Butler Co   Awos Ann Clg .4% Condns DB=>MWB, ! Name
  31.1,                                   ! Maximum Dry-Bulb Temperature {C}
  10.9,                                   ! Daily Dry-Bulb Temperature Range {deltaC}
  22.4,                                   ! Humidity Indicating Conditions at Maximum Dry-Bulb {BasedOnField A3}
  96842,                                  ! Barometric Pressure {Pa}
  2.9,                                    ! Wind Speed {m/s}
  250,                                    ! Wind Direction {deg}
  0,                                      ! Sky Clearness
  0,                                      ! Rain Indicator
  0,                                      ! Snow Indicator
  21,                                     ! Day of Month
  7,                                      ! Month
  SummerDesignDay,                        ! Day Type
  0,                                      ! Daylight Saving Time Indicator
  Wetbulb,                                ! Humidity Indicating Type
  ,                                       ! Humidity Indicating Day Schedule Name
  DefaultMultipliers,                     ! Dry-Bulb Temperature Range Modifier Type
  ,                                       ! Dry-Bulb Temperature Range Modifier Schedule Name
  ASHRAETau,                              ! Solar Model Indicator
  ,                                       ! Beam Solar Day Schedule Name
  ,                                       ! Diffuse Solar Day Schedule Name
  0.469,                                  ! ASHRAE Taub {dimensionless}
  1.965;                                  ! ASHRAE Taud {dimensionless}

OS:ComponentData,
  {49fa0323-dc92-4760-aab5-dcde48af0875}, ! Handle
  Component Data 1,                       ! Name
  {7678b4b4-6853-444a-b485-5b820d3b3ef1}, ! UUID
  {578d651e-4123-40fa-bcba-93f80a85a23b}, ! Version UUID
  1366310154,                             ! Creation Timestamp
  1366310154,                             ! Version Timestamp
  {80c18034-0e81-4f97-9dd9-2746b5ebc749}; ! Name of Object 1

