
OS:Version,
  {00bd705d-e3c6-479a-ab06-654f03b81b03}, ! Handle
  0.9.3;                                  ! Version Identifier

OS:SizingPeriod:DesignDay,
  {52761bad-359a-459f-a138-f036a5d87842}, ! Handle
  Greer/Greenville Ann Htg 99.6% Condns DB, ! Name
  -6.4,                                   ! Maximum Dry-Bulb Temperature {C}
  0,                                      ! Daily Dry-Bulb Temperature Range {deltaC}
  -6.4,                                   ! Humidity Indicating Conditions at Maximum Dry-Bulb {BasedOnField A3}
  97819,                                  ! Barometric Pressure {Pa}
  2.6,                                    ! Wind Speed {m/s}
  20,                                     ! Wind Direction {deg}
  0,                                      ! Sky Clearness
  0,                                      ! Rain Indicator
  0,                                      ! Snow Indicator
  21,                                     ! Day of Month
  1,                                      ! Month
  WinterDesignDay,                        ! Day Type
  0,                                      ! Daylight Saving Time Indicator
  Wetbulb,                                ! Humidity Indicating Type
  ,                                       ! Humidity Indicating Day Schedule Name
  DefaultMultipliers,                     ! Dry-Bulb Temperature Range Modifier Type
  ,                                       ! Dry-Bulb Temperature Range Modifier Schedule Name
  ASHRAEClearSky;                         ! Solar Model Indicator

OS:ComponentData,
  {a4122770-74a9-42fd-ba66-0825afa4016a}, ! Handle
  Component Data 1,                       ! Name
  {3a186614-bd4a-4dbe-804e-9bc275df102f}, ! UUID
  {ee045ed7-e626-4b44-bc4b-5bbec3494e29}, ! Version UUID
  1366310361,                             ! Creation Timestamp
  1366310361,                             ! Version Timestamp
  {52761bad-359a-459f-a138-f036a5d87842}; ! Name of Object 1

