
OS:Version,
  {eeb2b250-4f9b-484b-ab1a-0ae514909943}, ! Handle
  0.9.3;                                  ! Version Identifier

OS:SizingPeriod:DesignDay,
  {8e0029c2-7a81-4cc0-a53b-f48a2dff6ac6}, ! Handle
  Grand Rapids Awos Ann Clg 2% Condns WB=>MDB, ! Name
  24.9,                                   ! Maximum Dry-Bulb Temperature {C}
  11.1,                                   ! Daily Dry-Bulb Temperature Range {deltaC}
  19.6,                                   ! Humidity Indicating Conditions at Maximum Dry-Bulb {BasedOnField A3}
  96461,                                  ! Barometric Pressure {Pa}
  4.7,                                    ! Wind Speed {m/s}
  170,                                    ! Wind Direction {deg}
  0,                                      ! Sky Clearness
  0,                                      ! Rain Indicator
  0,                                      ! Snow Indicator
  21,                                     ! Day of Month
  7,                                      ! Month
  SummerDesignDay,                        ! Day Type
  0,                                      ! Daylight Saving Time Indicator
  Wetbulb,                                ! Humidity Indicating Type
  ,                                       ! Humidity Indicating Day Schedule Name
  DefaultMultipliers,                     ! Dry-Bulb Temperature Range Modifier Type
  ,                                       ! Dry-Bulb Temperature Range Modifier Schedule Name
  ASHRAETau,                              ! Solar Model Indicator
  ,                                       ! Beam Solar Day Schedule Name
  ,                                       ! Diffuse Solar Day Schedule Name
  0.396,                                  ! ASHRAE Taub {dimensionless}
  2.227;                                  ! ASHRAE Taud {dimensionless}

