
OS:Version,
  {a0813bc9-f47b-4566-a096-d674c4d31210}, ! Handle
  0.9.3;                                  ! Version Identifier

OS:SizingPeriod:DesignDay,
  {ff545e49-6844-4b1d-a514-e08a9f782e05}, ! Handle
  Charlotte Douglas Intl Arpt Ann Clg .4% Condns WB=>MDB, ! Name
  31.3,                                   ! Maximum Dry-Bulb Temperature {C}
  10.1,                                   ! Daily Dry-Bulb Temperature Range {deltaC}
  25.1,                                   ! Humidity Indicating Conditions at Maximum Dry-Bulb {BasedOnField A3}
  98686,                                  ! Barometric Pressure {Pa}
  3.3,                                    ! Wind Speed {m/s}
  240,                                    ! Wind Direction {deg}
  0,                                      ! Sky Clearness
  0,                                      ! Rain Indicator
  0,                                      ! Snow Indicator
  21,                                     ! Day of Month
  7,                                      ! Month
  SummerDesignDay,                        ! Day Type
  0,                                      ! Daylight Saving Time Indicator
  Wetbulb,                                ! Humidity Indicating Type
  ,                                       ! Humidity Indicating Day Schedule Name
  DefaultMultipliers,                     ! Dry-Bulb Temperature Range Modifier Type
  ,                                       ! Dry-Bulb Temperature Range Modifier Schedule Name
  ASHRAETau,                              ! Solar Model Indicator
  ,                                       ! Beam Solar Day Schedule Name
  ,                                       ! Diffuse Solar Day Schedule Name
  0.557,                                  ! ASHRAE Taub {dimensionless}
  1.762;                                  ! ASHRAE Taud {dimensionless}

OS:ComponentData,
  {28aa6bb0-ce0b-4477-8fb0-73d9dba73a9b}, ! Handle
  Component Data 1,                       ! Name
  {bf58d048-b55d-45d0-8a87-7063ef54a03f}, ! UUID
  {7eebe10c-9635-4e43-bdaa-363eef28c4d5}, ! Version UUID
  1366308889,                             ! Creation Timestamp
  1366308889,                             ! Version Timestamp
  {ff545e49-6844-4b1d-a514-e08a9f782e05}; ! Name of Object 1

