
OS:Version,
  {eedae1d7-8967-46ca-8483-36b2a2e1830d}, ! Handle
  0.9.3;                                  ! Version Identifier

OS:SizingPeriod:DesignDay,
  {bb4448d7-caac-4ce1-94dc-740a6c08dac9}, ! Handle
  Augusta Ann Clg 2% Condns DB=>MWB,      ! Name
  33.6,                                   ! Maximum Dry-Bulb Temperature {C}
  11.7,                                   ! Daily Dry-Bulb Temperature Range {deltaC}
  24.2,                                   ! Humidity Indicating Conditions at Maximum Dry-Bulb {BasedOnField A3}
  100786,                                 ! Barometric Pressure {Pa}
  3.8,                                    ! Wind Speed {m/s}
  240,                                    ! Wind Direction {deg}
  0,                                      ! Sky Clearness
  0,                                      ! Rain Indicator
  0,                                      ! Snow Indicator
  21,                                     ! Day of Month
  7,                                      ! Month
  SummerDesignDay,                        ! Day Type
  0,                                      ! Daylight Saving Time Indicator
  Wetbulb,                                ! Humidity Indicating Type
  ,                                       ! Humidity Indicating Day Schedule Name
  DefaultMultipliers,                     ! Dry-Bulb Temperature Range Modifier Type
  ,                                       ! Dry-Bulb Temperature Range Modifier Schedule Name
  ASHRAETau,                              ! Solar Model Indicator
  ,                                       ! Beam Solar Day Schedule Name
  ,                                       ! Diffuse Solar Day Schedule Name
  0.559,                                  ! ASHRAE Taub {dimensionless}
  1.788;                                  ! ASHRAE Taud {dimensionless}

OS:ComponentData,
  {7360a7ee-8267-41ad-9791-b045cfa3c006}, ! Handle
  Component Data 1,                       ! Name
  {06c0f49c-965a-442e-8615-31b9b8cb3b1c}, ! UUID
  {940d41dc-2158-40f9-9722-453ed2dcad83}, ! Version UUID
  1366306985,                             ! Creation Timestamp
  1366306985,                             ! Version Timestamp
  {bb4448d7-caac-4ce1-94dc-740a6c08dac9}; ! Name of Object 1

