
OS:Version,
  {7f13f6ef-5e78-462b-9d33-1b6cd6ab4ab8}, ! Handle
  0.9.3;                                  ! Version Identifier

OS:SizingPeriod:DesignDay,
  {b72beb69-8707-47b4-afc2-ab1627074622}, ! Handle
  Cut Bank Muni Ap Ann Clg .4% Condns DB=>MWB, ! Name
  31.7,                                   ! Maximum Dry-Bulb Temperature {C}
  15.1,                                   ! Daily Dry-Bulb Temperature Range {deltaC}
  15.7,                                   ! Humidity Indicating Conditions at Maximum Dry-Bulb {BasedOnField A3}
  88037,                                  ! Barometric Pressure {Pa}
  5.8,                                    ! Wind Speed {m/s}
  260,                                    ! Wind Direction {deg}
  0,                                      ! Sky Clearness
  0,                                      ! Rain Indicator
  0,                                      ! Snow Indicator
  21,                                     ! Day of Month
  7,                                      ! Month
  SummerDesignDay,                        ! Day Type
  0,                                      ! Daylight Saving Time Indicator
  Wetbulb,                                ! Humidity Indicating Type
  ,                                       ! Humidity Indicating Day Schedule Name
  DefaultMultipliers,                     ! Dry-Bulb Temperature Range Modifier Type
  ,                                       ! Dry-Bulb Temperature Range Modifier Schedule Name
  ASHRAETau,                              ! Solar Model Indicator
  ,                                       ! Beam Solar Day Schedule Name
  ,                                       ! Diffuse Solar Day Schedule Name
  0.368,                                  ! ASHRAE Taub {dimensionless}
  2.249;                                  ! ASHRAE Taud {dimensionless}

OS:ComponentData,
  {ba981329-d0a8-4892-b04c-7f0b33544c45}, ! Handle
  Component Data 1,                       ! Name
  {71432095-7a6c-4991-9a82-d148843e39e1}, ! UUID
  {79a97322-ef71-4e77-9b3f-fc8270a0b3e8}, ! Version UUID
  1366308745,                             ! Creation Timestamp
  1366308745,                             ! Version Timestamp
  {b72beb69-8707-47b4-afc2-ab1627074622}; ! Name of Object 1

