
OS:Version,
  {2ce9dfda-9506-4a7b-a405-0b21919b4875}, ! Handle
  0.9.3;                                  ! Version Identifier

OS:SizingPeriod:DesignDay,
  {448110d4-e30b-4c39-9f55-15e9aee58fa2}, ! Handle
  Keokuk Muni Ann Clg 1% Condns WB=>MDB,  ! Name
  32.2,                                   ! Maximum Dry-Bulb Temperature {C}
  10,                                     ! Daily Dry-Bulb Temperature Range {deltaC}
  26.4,                                   ! Humidity Indicating Conditions at Maximum Dry-Bulb {BasedOnField A3}
  98886,                                  ! Barometric Pressure {Pa}
  4,                                      ! Wind Speed {m/s}
  210,                                    ! Wind Direction {deg}
  0,                                      ! Sky Clearness
  0,                                      ! Rain Indicator
  0,                                      ! Snow Indicator
  21,                                     ! Day of Month
  7,                                      ! Month
  SummerDesignDay,                        ! Day Type
  0,                                      ! Daylight Saving Time Indicator
  Wetbulb,                                ! Humidity Indicating Type
  ,                                       ! Humidity Indicating Day Schedule Name
  DefaultMultipliers,                     ! Dry-Bulb Temperature Range Modifier Type
  ,                                       ! Dry-Bulb Temperature Range Modifier Schedule Name
  ASHRAETau,                              ! Solar Model Indicator
  ,                                       ! Beam Solar Day Schedule Name
  ,                                       ! Diffuse Solar Day Schedule Name
  0.455,                                  ! ASHRAE Taub {dimensionless}
  2.055;                                  ! ASHRAE Taud {dimensionless}

OS:ComponentData,
  {1ba18b79-665f-4be0-97d0-ac0e6f7e5025}, ! Handle
  Component Data 1,                       ! Name
  {02ae743d-677e-4fb0-aba8-e386056898c9}, ! UUID
  {de457831-8cc3-407e-b5e8-eac377a3a9ff}, ! Version UUID
  1366307202,                             ! Creation Timestamp
  1366307202,                             ! Version Timestamp
  {448110d4-e30b-4c39-9f55-15e9aee58fa2}; ! Name of Object 1

