
OS:Version,
  {2b3c95cf-840b-4316-a5ac-81e72caf46cb}, ! Handle
  0.9.3;                                  ! Version Identifier

OS:SizingPeriod:DesignDay,
  {13b75ed7-81c9-4e47-a7b9-94e1a05f5287}, ! Handle
  Amarillo Ann Clg 1% Condns DB=>MWB,     ! Name
  34.9,                                   ! Maximum Dry-Bulb Temperature {C}
  13.8,                                   ! Daily Dry-Bulb Temperature Range {deltaC}
  19,                                     ! Humidity Indicating Conditions at Maximum Dry-Bulb {BasedOnField A3}
  88801,                                  ! Barometric Pressure {Pa}
  6.9,                                    ! Wind Speed {m/s}
  210,                                    ! Wind Direction {deg}
  0,                                      ! Sky Clearness
  0,                                      ! Rain Indicator
  0,                                      ! Snow Indicator
  21,                                     ! Day of Month
  7,                                      ! Month
  SummerDesignDay,                        ! Day Type
  0,                                      ! Daylight Saving Time Indicator
  Wetbulb,                                ! Humidity Indicating Type
  ,                                       ! Humidity Indicating Day Schedule Name
  DefaultMultipliers,                     ! Dry-Bulb Temperature Range Modifier Type
  ,                                       ! Dry-Bulb Temperature Range Modifier Schedule Name
  ASHRAETau,                              ! Solar Model Indicator
  ,                                       ! Beam Solar Day Schedule Name
  ,                                       ! Diffuse Solar Day Schedule Name
  0.414,                                  ! ASHRAE Taub {dimensionless}
  2.136;                                  ! ASHRAE Taud {dimensionless}

OS:ComponentData,
  {76a20856-5bb7-421d-bc7a-11f3a190be26}, ! Handle
  Component Data 1,                       ! Name
  {8477be15-db74-4b65-be4d-9fae9abd1702}, ! UUID
  {2b7e8472-4379-4807-b76e-6e1486534b66}, ! Version UUID
  1366310570,                             ! Creation Timestamp
  1366310570,                             ! Version Timestamp
  {13b75ed7-81c9-4e47-a7b9-94e1a05f5287}; ! Name of Object 1

