
OS:Version,
  {9ee595af-47f0-45fb-af30-147f5130397e}, ! Handle
  0.9.3;                                  ! Version Identifier

OS:SizingPeriod:DesignDay,
  {449bc011-5a3f-442b-8a83-97bc3250319d}, ! Handle
  Dubuque Regional Ap Ann Clg 2% Condns DB=>MWB, ! Name
  28.6,                                   ! Maximum Dry-Bulb Temperature {C}
  10.2,                                   ! Daily Dry-Bulb Temperature Range {deltaC}
  21.8,                                   ! Humidity Indicating Conditions at Maximum Dry-Bulb {BasedOnField A3}
  97516,                                  ! Barometric Pressure {Pa}
  5.2,                                    ! Wind Speed {m/s}
  190,                                    ! Wind Direction {deg}
  0,                                      ! Sky Clearness
  0,                                      ! Rain Indicator
  0,                                      ! Snow Indicator
  21,                                     ! Day of Month
  7,                                      ! Month
  SummerDesignDay,                        ! Day Type
  0,                                      ! Daylight Saving Time Indicator
  Wetbulb,                                ! Humidity Indicating Type
  ,                                       ! Humidity Indicating Day Schedule Name
  DefaultMultipliers,                     ! Dry-Bulb Temperature Range Modifier Type
  ,                                       ! Dry-Bulb Temperature Range Modifier Schedule Name
  ASHRAETau,                              ! Solar Model Indicator
  ,                                       ! Beam Solar Day Schedule Name
  ,                                       ! Diffuse Solar Day Schedule Name
  0.433,                                  ! ASHRAE Taub {dimensionless}
  2.117;                                  ! ASHRAE Taud {dimensionless}

OS:ComponentData,
  {a31c7a6a-fbd7-4a7e-aa3d-bd343ff94f4a}, ! Handle
  Component Data 1,                       ! Name
  {40c9b4dd-ad78-469e-84bd-8586aecc1b3f}, ! UUID
  {8e1cbfe1-702a-401f-8077-27d83e0aff30}, ! Version UUID
  1366307184,                             ! Creation Timestamp
  1366307184,                             ! Version Timestamp
  {449bc011-5a3f-442b-8a83-97bc3250319d}; ! Name of Object 1

