
OS:Version,
  {7e251d5b-25bb-422c-91f1-a361ea90bc5d}, ! Handle
  0.9.3;                                  ! Version Identifier

OS:SizingPeriod:DesignDay,
  {813cd704-32da-4120-a0ee-b8d7b92e5c6d}, ! Handle
  Louisville Standiford Field Ann Clg .4% Condns Enth=>MDB, ! Name
  31.5,                                   ! Maximum Dry-Bulb Temperature {C}
  9.7,                                    ! Daily Dry-Bulb Temperature Range {deltaC}
  81000,                                  ! Humidity Indicating Conditions at Maximum Dry-Bulb {BasedOnField A3}
  99571,                                  ! Barometric Pressure {Pa}
  4.2,                                    ! Wind Speed {m/s}
  240,                                    ! Wind Direction {deg}
  0,                                      ! Sky Clearness
  0,                                      ! Rain Indicator
  0,                                      ! Snow Indicator
  21,                                     ! Day of Month
  7,                                      ! Month
  SummerDesignDay,                        ! Day Type
  0,                                      ! Daylight Saving Time Indicator
  Enthalpy,                               ! Humidity Indicating Type
  ,                                       ! Humidity Indicating Day Schedule Name
  DefaultMultipliers,                     ! Dry-Bulb Temperature Range Modifier Type
  ,                                       ! Dry-Bulb Temperature Range Modifier Schedule Name
  ASHRAETau,                              ! Solar Model Indicator
  ,                                       ! Beam Solar Day Schedule Name
  ,                                       ! Diffuse Solar Day Schedule Name
  0.51,                                   ! ASHRAE Taub {dimensionless}
  1.872;                                  ! ASHRAE Taud {dimensionless}

OS:ComponentData,
  {59a16ea6-4181-4677-af7f-4ab3cb5757da}, ! Handle
  Component Data 1,                       ! Name
  {8d9609a2-e1d9-4eeb-857b-a3258645b982}, ! UUID
  {d24638a6-3c32-4822-9829-ede40c787349}, ! Version UUID
  1366307672,                             ! Creation Timestamp
  1366307672,                             ! Version Timestamp
  {813cd704-32da-4120-a0ee-b8d7b92e5c6d}; ! Name of Object 1

