
OS:Version,
  {951a1275-98ca-41e2-abed-39a19fd29514}, ! Handle
  0.9.3;                                  ! Version Identifier

OS:SizingPeriod:DesignDay,
  {f235b821-9139-4798-966e-3a196789eb53}, ! Handle
  Idaho Falls Fanning Field Ann Clg .4% Condns WB=>MDB, ! Name
  28.7,                                   ! Maximum Dry-Bulb Temperature {C}
  18.9,                                   ! Daily Dry-Bulb Temperature Range {deltaC}
  18.3,                                   ! Humidity Indicating Conditions at Maximum Dry-Bulb {BasedOnField A3}
  85170,                                  ! Barometric Pressure {Pa}
  4.8,                                    ! Wind Speed {m/s}
  200,                                    ! Wind Direction {deg}
  0,                                      ! Sky Clearness
  0,                                      ! Rain Indicator
  0,                                      ! Snow Indicator
  21,                                     ! Day of Month
  7,                                      ! Month
  SummerDesignDay,                        ! Day Type
  0,                                      ! Daylight Saving Time Indicator
  Wetbulb,                                ! Humidity Indicating Type
  ,                                       ! Humidity Indicating Day Schedule Name
  DefaultMultipliers,                     ! Dry-Bulb Temperature Range Modifier Type
  ,                                       ! Dry-Bulb Temperature Range Modifier Schedule Name
  ASHRAETau,                              ! Solar Model Indicator
  ,                                       ! Beam Solar Day Schedule Name
  ,                                       ! Diffuse Solar Day Schedule Name
  0.398,                                  ! ASHRAE Taub {dimensionless}
  2.067;                                  ! ASHRAE Taud {dimensionless}

OS:ComponentData,
  {a60b6db9-25af-4f99-a5a8-c298d3967506}, ! Handle
  Component Data 1,                       ! Name
  {70530d9c-f20a-4143-a4e7-4ae2cc5b7bc3}, ! UUID
  {b849883a-ac2e-4e71-8c72-142d011167da}, ! Version UUID
  1366307285,                             ! Creation Timestamp
  1366307285,                             ! Version Timestamp
  {f235b821-9139-4798-966e-3a196789eb53}; ! Name of Object 1

