
OS:Version,
  {9cc5d85e-4cd5-42bd-a68c-cb92905854fd}, ! Handle
  0.9.3;                                  ! Version Identifier

OS:SizingPeriod:DesignDay,
  {4c9d306c-93bd-4168-878a-3a8625476da3}, ! Handle
  Kaneohe Bay Mcas Ann Clg 1% Condns DP=>MDB, ! Name
  26.7,                                   ! Maximum Dry-Bulb Temperature {C}
  4,                                      ! Daily Dry-Bulb Temperature Range {deltaC}
  23.7,                                   ! Humidity Indicating Conditions at Maximum Dry-Bulb {BasedOnField A3}
  101289,                                 ! Barometric Pressure {Pa}
  4.4,                                    ! Wind Speed {m/s}
  70,                                     ! Wind Direction {deg}
  0,                                      ! Sky Clearness
  0,                                      ! Rain Indicator
  0,                                      ! Snow Indicator
  21,                                     ! Day of Month
  9,                                      ! Month
  SummerDesignDay,                        ! Day Type
  0,                                      ! Daylight Saving Time Indicator
  Dewpoint,                               ! Humidity Indicating Type
  ,                                       ! Humidity Indicating Day Schedule Name
  DefaultMultipliers,                     ! Dry-Bulb Temperature Range Modifier Type
  ,                                       ! Dry-Bulb Temperature Range Modifier Schedule Name
  ASHRAETau,                              ! Solar Model Indicator
  ,                                       ! Beam Solar Day Schedule Name
  ,                                       ! Diffuse Solar Day Schedule Name
  0.371,                                  ! ASHRAE Taub {dimensionless}
  2.619;                                  ! ASHRAE Taud {dimensionless}

OS:ComponentData,
  {715d4cbc-a090-40a5-9122-18258792c34b}, ! Handle
  Component Data 1,                       ! Name
  {c2934323-65be-4071-865e-9a8330ffc1b9}, ! UUID
  {7a922248-ed6a-4992-9c88-dcbff92dca87}, ! Version UUID
  1366307104,                             ! Creation Timestamp
  1366307104,                             ! Version Timestamp
  {4c9d306c-93bd-4168-878a-3a8625476da3}; ! Name of Object 1

