
OS:Version,
  {bcb299e0-3388-4da5-b2ca-617cebef7f95}, ! Handle
  0.9.3;                                  ! Version Identifier

OS:SizingPeriod:DesignDay,
  {95e6da40-bcad-440e-be67-0a95ecd357e2}, ! Handle
  Lakeview  Awos Ann Clg .4% Condns DP=>MDB, ! Name
  20.1,                                   ! Maximum Dry-Bulb Temperature {C}
  18.9,                                   ! Daily Dry-Bulb Temperature Range {deltaC}
  11.8,                                   ! Humidity Indicating Conditions at Maximum Dry-Bulb {BasedOnField A3}
  85170,                                  ! Barometric Pressure {Pa}
  3.5,                                    ! Wind Speed {m/s}
  160,                                    ! Wind Direction {deg}
  0,                                      ! Sky Clearness
  0,                                      ! Rain Indicator
  0,                                      ! Snow Indicator
  21,                                     ! Day of Month
  7,                                      ! Month
  SummerDesignDay,                        ! Day Type
  0,                                      ! Daylight Saving Time Indicator
  Dewpoint,                               ! Humidity Indicating Type
  ,                                       ! Humidity Indicating Day Schedule Name
  DefaultMultipliers,                     ! Dry-Bulb Temperature Range Modifier Type
  ,                                       ! Dry-Bulb Temperature Range Modifier Schedule Name
  ASHRAETau,                              ! Solar Model Indicator
  ,                                       ! Beam Solar Day Schedule Name
  ,                                       ! Diffuse Solar Day Schedule Name
  0.355,                                  ! ASHRAE Taub {dimensionless}
  2.327;                                  ! ASHRAE Taud {dimensionless}

OS:ComponentData,
  {cf23c2f7-b538-43c5-ba2a-29fcb366e3b0}, ! Handle
  Component Data 1,                       ! Name
  {098699bc-7f3f-4938-ad0b-d66d8a478001}, ! UUID
  {cd810d6d-a8f6-4a6a-8252-8a9167f1dbf2}, ! Version UUID
  1366310027,                             ! Creation Timestamp
  1366310027,                             ! Version Timestamp
  {95e6da40-bcad-440e-be67-0a95ecd357e2}; ! Name of Object 1

