
OS:Version,
  {2297f362-4a5e-4de3-8ee6-1fa05e1e30fe}, ! Handle
  0.9.3;                                  ! Version Identifier

OS:SizingPeriod:DesignDay,
  {289f1092-ab54-4909-9e29-6063bbef6957}, ! Handle
  Cape May Co Ann Htg 99.6% Condns DB,    ! Name
  -9.1,                                   ! Maximum Dry-Bulb Temperature {C}
  0,                                      ! Daily Dry-Bulb Temperature Range {deltaC}
  -9.1,                                   ! Humidity Indicating Conditions at Maximum Dry-Bulb {BasedOnField A3}
  101241,                                 ! Barometric Pressure {Pa}
  4.8,                                    ! Wind Speed {m/s}
  320,                                    ! Wind Direction {deg}
  0,                                      ! Sky Clearness
  0,                                      ! Rain Indicator
  0,                                      ! Snow Indicator
  21,                                     ! Day of Month
  1,                                      ! Month
  WinterDesignDay,                        ! Day Type
  0,                                      ! Daylight Saving Time Indicator
  Wetbulb,                                ! Humidity Indicating Type
  ,                                       ! Humidity Indicating Day Schedule Name
  DefaultMultipliers,                     ! Dry-Bulb Temperature Range Modifier Type
  ,                                       ! Dry-Bulb Temperature Range Modifier Schedule Name
  ASHRAEClearSky;                         ! Solar Model Indicator

OS:ComponentData,
  {c7278ff8-62b2-4f43-a1ec-386e51f83f07}, ! Handle
  Component Data 1,                       ! Name
  {2d6eaacd-eebd-4611-81a1-a214b38dc964}, ! UUID
  {2b7f8d0d-4243-4cbe-9e0f-e6e712917ab9}, ! Version UUID
  1366309300,                             ! Creation Timestamp
  1366309300,                             ! Version Timestamp
  {289f1092-ab54-4909-9e29-6063bbef6957}; ! Name of Object 1

