
OS:Version,
  {d602c882-ffcc-41e2-a5e4-bc72b7ae5f51}, ! Handle
  0.9.3;                                  ! Version Identifier

OS:SizingPeriod:DesignDay,
  {16d0280b-370e-4efb-b6d5-372efa4a9acf}, ! Handle
  Kodiak Airport Ann Htg Wind 99.6% Condns WS=>MCDB, ! Name
  0.4,                                    ! Maximum Dry-Bulb Temperature {C}
  0,                                      ! Daily Dry-Bulb Temperature Range {deltaC}
  0.4,                                    ! Humidity Indicating Conditions at Maximum Dry-Bulb {BasedOnField A3}
  101265,                                 ! Barometric Pressure {Pa}
  17.4,                                   ! Wind Speed {m/s}
  300,                                    ! Wind Direction {deg}
  0,                                      ! Sky Clearness
  0,                                      ! Rain Indicator
  0,                                      ! Snow Indicator
  21,                                     ! Day of Month
  1,                                      ! Month
  WinterDesignDay,                        ! Day Type
  0,                                      ! Daylight Saving Time Indicator
  Wetbulb,                                ! Humidity Indicating Type
  ,                                       ! Humidity Indicating Day Schedule Name
  DefaultMultipliers,                     ! Dry-Bulb Temperature Range Modifier Type
  ,                                       ! Dry-Bulb Temperature Range Modifier Schedule Name
  ASHRAEClearSky;                         ! Solar Model Indicator

OS:ComponentData,
  {2184ac40-1258-4405-8257-03b614fa6da8}, ! Handle
  Component Data 1,                       ! Name
  {4441cea9-19a6-4dd0-8319-5e8a26549bc9}, ! UUID
  {aadfa49d-61dc-4d30-a38c-b15e69df6efe}, ! Version UUID
  1366305381,                             ! Creation Timestamp
  1366305381,                             ! Version Timestamp
  {16d0280b-370e-4efb-b6d5-372efa4a9acf}; ! Name of Object 1

