
OS:Version,
  {7c0252d1-2615-45a2-80a7-f85b85ccf1fd}, ! Handle
  0.9.3;                                  ! Version Identifier

OS:SizingPeriod:DesignDay,
  {b4bee5dd-c9f0-4f55-a6a8-8a2b8379e70c}, ! Handle
  Caldwell  Awos Ann Clg 2% Condns WB=>MDB, ! Name
  31,                                     ! Maximum Dry-Bulb Temperature {C}
  17.9,                                   ! Daily Dry-Bulb Temperature Range {deltaC}
  18.5,                                   ! Humidity Indicating Conditions at Maximum Dry-Bulb {BasedOnField A3}
  92745,                                  ! Barometric Pressure {Pa}
  2.4,                                    ! Wind Speed {m/s}
  350,                                    ! Wind Direction {deg}
  0,                                      ! Sky Clearness
  0,                                      ! Rain Indicator
  0,                                      ! Snow Indicator
  21,                                     ! Day of Month
  7,                                      ! Month
  SummerDesignDay,                        ! Day Type
  0,                                      ! Daylight Saving Time Indicator
  Wetbulb,                                ! Humidity Indicating Type
  ,                                       ! Humidity Indicating Day Schedule Name
  DefaultMultipliers,                     ! Dry-Bulb Temperature Range Modifier Type
  ,                                       ! Dry-Bulb Temperature Range Modifier Schedule Name
  ASHRAETau,                              ! Solar Model Indicator
  ,                                       ! Beam Solar Day Schedule Name
  ,                                       ! Diffuse Solar Day Schedule Name
  0.411,                                  ! ASHRAE Taub {dimensionless}
  2.073;                                  ! ASHRAE Taud {dimensionless}

OS:ComponentData,
  {15419563-21c2-4ac4-9b37-ce88324d04da}, ! Handle
  Component Data 1,                       ! Name
  {85da77ce-ab21-4186-adba-8a3d7d1cf9a8}, ! UUID
  {e50324a2-ce63-4e6d-9b27-9275bd6cf875}, ! Version UUID
  1366307277,                             ! Creation Timestamp
  1366307277,                             ! Version Timestamp
  {b4bee5dd-c9f0-4f55-a6a8-8a2b8379e70c}; ! Name of Object 1

