
OS:Version,
  {7a644fce-bbf2-48a0-b846-bb464360b9ac}, ! Handle
  0.9.3;                                  ! Version Identifier

OS:SizingPeriod:DesignDay,
  {25b886a9-8199-460d-884c-ef44b320680b}, ! Handle
  COLUMBIA Ann Clg 2% Condns DP=>MDB,     ! Name
  26.9,                                   ! Maximum Dry-Bulb Temperature {C}
  11.1,                                   ! Daily Dry-Bulb Temperature Range {deltaC}
  23.3,                                   ! Humidity Indicating Conditions at Maximum Dry-Bulb {BasedOnField A3}
  100499,                                 ! Barometric Pressure {Pa}
  3.9,                                    ! Wind Speed {m/s}
  240,                                    ! Wind Direction {deg}
  0,                                      ! Sky Clearness
  0,                                      ! Rain Indicator
  0,                                      ! Snow Indicator
  21,                                     ! Day of Month
  7,                                      ! Month
  SummerDesignDay,                        ! Day Type
  0,                                      ! Daylight Saving Time Indicator
  Dewpoint,                               ! Humidity Indicating Type
  ,                                       ! Humidity Indicating Day Schedule Name
  DefaultMultipliers,                     ! Dry-Bulb Temperature Range Modifier Type
  ,                                       ! Dry-Bulb Temperature Range Modifier Schedule Name
  ASHRAETau,                              ! Solar Model Indicator
  ,                                       ! Beam Solar Day Schedule Name
  ,                                       ! Diffuse Solar Day Schedule Name
  0.566,                                  ! ASHRAE Taub {dimensionless}
  1.764;                                  ! ASHRAE Taud {dimensionless}

OS:ComponentData,
  {28d01c8f-9046-455e-a8d7-472cff60c8c0}, ! Handle
  Component Data 1,                       ! Name
  {7de0680e-e63f-48b6-a3db-812b77bc4e30}, ! UUID
  {c76e2f11-640f-4d3b-95ba-2be5c88369aa}, ! Version UUID
  1366310337,                             ! Creation Timestamp
  1366310337,                             ! Version Timestamp
  {25b886a9-8199-460d-884c-ef44b320680b}; ! Name of Object 1

