
OS:Version,
  {3650840d-1b4c-4631-aae2-794adeb30020}, ! Handle
  0.9.3;                                  ! Version Identifier

OS:SizingPeriod:DesignDay,
  {09deb40a-ec68-4ca7-84d5-c3e6b7e5b7c0}, ! Handle
  Clayton Ann Clg 1% Condns WB=>MDB,      ! Name
  28.5,                                   ! Maximum Dry-Bulb Temperature {C}
  14.7,                                   ! Daily Dry-Bulb Temperature Range {deltaC}
  19,                                     ! Humidity Indicating Conditions at Maximum Dry-Bulb {BasedOnField A3}
  84442,                                  ! Barometric Pressure {Pa}
  6.2,                                    ! Wind Speed {m/s}
  190,                                    ! Wind Direction {deg}
  0,                                      ! Sky Clearness
  0,                                      ! Rain Indicator
  0,                                      ! Snow Indicator
  21,                                     ! Day of Month
  7,                                      ! Month
  SummerDesignDay,                        ! Day Type
  0,                                      ! Daylight Saving Time Indicator
  Wetbulb,                                ! Humidity Indicating Type
  ,                                       ! Humidity Indicating Day Schedule Name
  DefaultMultipliers,                     ! Dry-Bulb Temperature Range Modifier Type
  ,                                       ! Dry-Bulb Temperature Range Modifier Schedule Name
  ASHRAETau,                              ! Solar Model Indicator
  ,                                       ! Beam Solar Day Schedule Name
  ,                                       ! Diffuse Solar Day Schedule Name
  0.399,                                  ! ASHRAE Taub {dimensionless}
  2.129;                                  ! ASHRAE Taud {dimensionless}

