
OS:Version,
  {049eea33-8f62-470b-afbc-55df2384b907}, ! Handle
  0.9.3;                                  ! Version Identifier

OS:SizingPeriod:DesignDay,
  {85d2c35f-c3d7-4544-a827-3056c56a8258}, ! Handle
  Charleston Ann Clg 2% Condns Enth=>MDB, ! Name
  30.3,                                   ! Maximum Dry-Bulb Temperature {C}
  9,                                      ! Daily Dry-Bulb Temperature Range {deltaC}
  80200,                                  ! Humidity Indicating Conditions at Maximum Dry-Bulb {BasedOnField A3}
  101145,                                 ! Barometric Pressure {Pa}
  4.4,                                    ! Wind Speed {m/s}
  230,                                    ! Wind Direction {deg}
  0,                                      ! Sky Clearness
  0,                                      ! Rain Indicator
  0,                                      ! Snow Indicator
  21,                                     ! Day of Month
  7,                                      ! Month
  SummerDesignDay,                        ! Day Type
  0,                                      ! Daylight Saving Time Indicator
  Enthalpy,                               ! Humidity Indicating Type
  ,                                       ! Humidity Indicating Day Schedule Name
  DefaultMultipliers,                     ! Dry-Bulb Temperature Range Modifier Type
  ,                                       ! Dry-Bulb Temperature Range Modifier Schedule Name
  ASHRAETau,                              ! Solar Model Indicator
  ,                                       ! Beam Solar Day Schedule Name
  ,                                       ! Diffuse Solar Day Schedule Name
  0.559,                                  ! ASHRAE Taub {dimensionless}
  1.811;                                  ! ASHRAE Taud {dimensionless}

OS:ComponentData,
  {0872d42e-60af-4bce-a3fc-a4a40a7cfbda}, ! Handle
  Component Data 1,                       ! Name
  {0b61f5a9-5a6d-452a-9743-aaae251403de}, ! UUID
  {5dd37555-18c5-4724-a756-9f54b6dd9525}, ! Version UUID
  1366310328,                             ! Creation Timestamp
  1366310328,                             ! Version Timestamp
  {85d2c35f-c3d7-4544-a827-3056c56a8258}; ! Name of Object 1

