
OS:Version,
  {982ba0fa-8dc7-40cc-8274-59cf9e90afe0}, ! Handle
  0.9.3;                                  ! Version Identifier

OS:SizingPeriod:DesignDay,
  {731a7cd8-9ba7-4dbe-a6ab-a2cd4084594f}, ! Handle
  Kahului Airport Ann Clg 1% Condns WB=>MDB, ! Name
  29.3,                                   ! Maximum Dry-Bulb Temperature {C}
  8.3,                                    ! Daily Dry-Bulb Temperature Range {deltaC}
  24.6,                                   ! Humidity Indicating Conditions at Maximum Dry-Bulb {BasedOnField A3}
  101133,                                 ! Barometric Pressure {Pa}
  7.9,                                    ! Wind Speed {m/s}
  60,                                     ! Wind Direction {deg}
  0,                                      ! Sky Clearness
  0,                                      ! Rain Indicator
  0,                                      ! Snow Indicator
  21,                                     ! Day of Month
  8,                                      ! Month
  SummerDesignDay,                        ! Day Type
  0,                                      ! Daylight Saving Time Indicator
  Wetbulb,                                ! Humidity Indicating Type
  ,                                       ! Humidity Indicating Day Schedule Name
  DefaultMultipliers,                     ! Dry-Bulb Temperature Range Modifier Type
  ,                                       ! Dry-Bulb Temperature Range Modifier Schedule Name
  ASHRAETau,                              ! Solar Model Indicator
  ,                                       ! Beam Solar Day Schedule Name
  ,                                       ! Diffuse Solar Day Schedule Name
  0.383,                                  ! ASHRAE Taub {dimensionless}
  2.519;                                  ! ASHRAE Taud {dimensionless}

OS:ComponentData,
  {345983ef-7700-47df-b691-24ea7da58b37}, ! Handle
  Component Data 1,                       ! Name
  {a742c26e-5d74-4a4c-a83c-895286a3c536}, ! UUID
  {dc94847a-16f7-4181-a5e9-202de57fc926}, ! Version UUID
  1366307100,                             ! Creation Timestamp
  1366307100,                             ! Version Timestamp
  {731a7cd8-9ba7-4dbe-a6ab-a2cd4084594f}; ! Name of Object 1

