
OS:Version,
  {9f024139-2d45-420e-9fa5-b23aa331f853}, ! Handle
  0.9.3;                                  ! Version Identifier

OS:SizingPeriod:DesignDay,
  {d728d68e-b983-47ca-9f1e-92f59123f3c1}, ! Handle
  LA_CROSSE Ann Clg 1% Condns DB=>MWB,    ! Name
  31.7,                                   ! Maximum Dry-Bulb Temperature {C}
  11.1,                                   ! Daily Dry-Bulb Temperature Range {deltaC}
  23,                                     ! Humidity Indicating Conditions at Maximum Dry-Bulb {BasedOnField A3}
  98886,                                  ! Barometric Pressure {Pa}
  5.4,                                    ! Wind Speed {m/s}
  180,                                    ! Wind Direction {deg}
  0,                                      ! Sky Clearness
  0,                                      ! Rain Indicator
  0,                                      ! Snow Indicator
  21,                                     ! Day of Month
  7,                                      ! Month
  SummerDesignDay,                        ! Day Type
  0,                                      ! Daylight Saving Time Indicator
  Wetbulb,                                ! Humidity Indicating Type
  ,                                       ! Humidity Indicating Day Schedule Name
  DefaultMultipliers,                     ! Dry-Bulb Temperature Range Modifier Type
  ,                                       ! Dry-Bulb Temperature Range Modifier Schedule Name
  ASHRAETau,                              ! Solar Model Indicator
  ,                                       ! Beam Solar Day Schedule Name
  ,                                       ! Diffuse Solar Day Schedule Name
  0.431,                                  ! ASHRAE Taub {dimensionless}
  2.126;                                  ! ASHRAE Taud {dimensionless}

OS:ComponentData,
  {537edac0-1970-485f-8883-798a6b328f14}, ! Handle
  Component Data 1,                       ! Name
  {0d154fd5-4d81-41ea-b980-e7b99462a9a6}, ! UUID
  {30714e03-6eba-457f-bd47-5e6760deb757}, ! Version UUID
  1366311502,                             ! Creation Timestamp
  1366311502,                             ! Version Timestamp
  {d728d68e-b983-47ca-9f1e-92f59123f3c1}; ! Name of Object 1

