
OS:Version,
  {b1674e5e-6e1a-4524-85ef-8b7ebeb2b379}, ! Handle
  0.9.3;                                  ! Version Identifier

OS:SizingPeriod:DesignDay,
  {a4f3366c-cc40-488b-ad80-a101a1c69be8}, ! Handle
  Albuquerque Intl Arpt  Isis Ann Htg 99.6% Condns DB, ! Name
  -7.9,                                   ! Maximum Dry-Bulb Temperature {C}
  0,                                      ! Daily Dry-Bulb Temperature Range {deltaC}
  -7.9,                                   ! Humidity Indicating Conditions at Maximum Dry-Bulb {BasedOnField A3}
  83328,                                  ! Barometric Pressure {Pa}
  3.2,                                    ! Wind Speed {m/s}
  0,                                      ! Wind Direction {deg}
  0,                                      ! Sky Clearness
  0,                                      ! Rain Indicator
  0,                                      ! Snow Indicator
  21,                                     ! Day of Month
  12,                                     ! Month
  WinterDesignDay,                        ! Day Type
  0,                                      ! Daylight Saving Time Indicator
  Wetbulb,                                ! Humidity Indicating Type
  ,                                       ! Humidity Indicating Day Schedule Name
  DefaultMultipliers,                     ! Dry-Bulb Temperature Range Modifier Type
  ,                                       ! Dry-Bulb Temperature Range Modifier Schedule Name
  ASHRAEClearSky;                         ! Solar Model Indicator

OS:ComponentData,
  {fe53d97d-617e-4b9a-a3ec-f01b0f85e61e}, ! Handle
  Component Data 1,                       ! Name
  {c3273fd7-28ce-4618-8193-5e0cd0d894a8}, ! UUID
  {b91ce53a-110d-470a-b149-f22edc3f5bc8}, ! Version UUID
  1366309368,                             ! Creation Timestamp
  1366309368,                             ! Version Timestamp
  {a4f3366c-cc40-488b-ad80-a101a1c69be8}; ! Name of Object 1

