
OS:Version,
  {ea47c635-9c9d-4daa-bd34-668b7453fb0f}, ! Handle
  0.9.3;                                  ! Version Identifier

OS:SizingPeriod:DesignDay,
  {83c0396c-fc5d-4bc1-9a21-0304aa755967}, ! Handle
  COLUMBUS Ann Clg .4% Condns DP=>MDB,    ! Name
  27.8,                                   ! Maximum Dry-Bulb Temperature {C}
  10.1,                                   ! Daily Dry-Bulb Temperature Range {deltaC}
  24.1,                                   ! Humidity Indicating Conditions at Maximum Dry-Bulb {BasedOnField A3}
  99702,                                  ! Barometric Pressure {Pa}
  3.7,                                    ! Wind Speed {m/s}
  270,                                    ! Wind Direction {deg}
  0,                                      ! Sky Clearness
  0,                                      ! Rain Indicator
  0,                                      ! Snow Indicator
  21,                                     ! Day of Month
  7,                                      ! Month
  SummerDesignDay,                        ! Day Type
  0,                                      ! Daylight Saving Time Indicator
  Dewpoint,                               ! Humidity Indicating Type
  ,                                       ! Humidity Indicating Day Schedule Name
  DefaultMultipliers,                     ! Dry-Bulb Temperature Range Modifier Type
  ,                                       ! Dry-Bulb Temperature Range Modifier Schedule Name
  ASHRAETau,                              ! Solar Model Indicator
  ,                                       ! Beam Solar Day Schedule Name
  ,                                       ! Diffuse Solar Day Schedule Name
  0.564,                                  ! ASHRAE Taub {dimensionless}
  1.778;                                  ! ASHRAE Taud {dimensionless}

OS:ComponentData,
  {6d353036-f3a5-4598-bd08-57a87bdd371f}, ! Handle
  Component Data 1,                       ! Name
  {b48ce909-7153-42f7-aeea-b694e96f1d0c}, ! UUID
  {26521232-b2d2-49c1-99a9-936a3fee5d63}, ! Version UUID
  1366307001,                             ! Creation Timestamp
  1366307001,                             ! Version Timestamp
  {83c0396c-fc5d-4bc1-9a21-0304aa755967}; ! Name of Object 1

