
OS:Version,
  {a7cb290b-80a5-432a-9fe7-b7460e5fd540}, ! Handle
  0.9.3;                                  ! Version Identifier

OS:SizingPeriod:DesignDay,
  {5454d5a6-63dd-469d-b9ee-919d020f7dca}, ! Handle
  Cape Girardeau Municipal Ap Ann Clg 2% Condns Enth=>MDB, ! Name
  30.9,                                   ! Maximum Dry-Bulb Temperature {C}
  10.7,                                   ! Daily Dry-Bulb Temperature Range {deltaC}
  78100,                                  ! Humidity Indicating Conditions at Maximum Dry-Bulb {BasedOnField A3}
  100094,                                 ! Barometric Pressure {Pa}
  3.9,                                    ! Wind Speed {m/s}
  210,                                    ! Wind Direction {deg}
  0,                                      ! Sky Clearness
  0,                                      ! Rain Indicator
  0,                                      ! Snow Indicator
  21,                                     ! Day of Month
  7,                                      ! Month
  SummerDesignDay,                        ! Day Type
  0,                                      ! Daylight Saving Time Indicator
  Enthalpy,                               ! Humidity Indicating Type
  ,                                       ! Humidity Indicating Day Schedule Name
  DefaultMultipliers,                     ! Dry-Bulb Temperature Range Modifier Type
  ,                                       ! Dry-Bulb Temperature Range Modifier Schedule Name
  ASHRAETau,                              ! Solar Model Indicator
  ,                                       ! Beam Solar Day Schedule Name
  ,                                       ! Diffuse Solar Day Schedule Name
  0.491,                                  ! ASHRAE Taub {dimensionless}
  1.953;                                  ! ASHRAE Taud {dimensionless}

OS:ComponentData,
  {f369567c-0d9d-4b41-88f0-e93196a3ac2f}, ! Handle
  Component Data 1,                       ! Name
  {4f87a64e-e6a2-4292-9bbf-69b7acee33cf}, ! UUID
  {0c66968a-0a2a-4050-8059-497e5662584d}, ! Version UUID
  1366308477,                             ! Creation Timestamp
  1366308477,                             ! Version Timestamp
  {5454d5a6-63dd-469d-b9ee-919d020f7dca}; ! Name of Object 1

