
OS:Version,
  {631a3101-53c2-4c33-96e1-26df7c83ecd0}, ! Handle
  0.9.3;                                  ! Version Identifier

OS:SizingPeriod:DesignDay,
  {dcd1cf0e-80c9-4b4e-9c0a-2274a8bf21e1}, ! Handle
  LAS_VEGAS Ann Clg 2% Condns Enth=>MDB,  ! Name
  34.1,                                   ! Maximum Dry-Bulb Temperature {C}
  13,                                     ! Daily Dry-Bulb Temperature Range {deltaC}
  63800,                                  ! Humidity Indicating Conditions at Maximum Dry-Bulb {BasedOnField A3}
  93598,                                  ! Barometric Pressure {Pa}
  4.9,                                    ! Wind Speed {m/s}
  230,                                    ! Wind Direction {deg}
  0,                                      ! Sky Clearness
  0,                                      ! Rain Indicator
  0,                                      ! Snow Indicator
  21,                                     ! Day of Month
  7,                                      ! Month
  SummerDesignDay,                        ! Day Type
  0,                                      ! Daylight Saving Time Indicator
  Enthalpy,                               ! Humidity Indicating Type
  ,                                       ! Humidity Indicating Day Schedule Name
  DefaultMultipliers,                     ! Dry-Bulb Temperature Range Modifier Type
  ,                                       ! Dry-Bulb Temperature Range Modifier Schedule Name
  ASHRAETau,                              ! Solar Model Indicator
  ,                                       ! Beam Solar Day Schedule Name
  ,                                       ! Diffuse Solar Day Schedule Name
  0.55,                                   ! ASHRAE Taub {dimensionless}
  1.674;                                  ! ASHRAE Taud {dimensionless}

