
OS:Version,
  {27622163-725e-4535-ab8b-9a7110e9a578}, ! Handle
  0.9.3;                                  ! Version Identifier

OS:SizingPeriod:DesignDay,
  {e0decdab-7759-453c-88d3-3b2b2ed5cc0a}, ! Handle
  BURNS Ann Htg Wind 99.6% Condns WS=>MCDB, ! Name
  4.7,                                    ! Maximum Dry-Bulb Temperature {C}
  0,                                      ! Daily Dry-Bulb Temperature Range {deltaC}
  4.7,                                    ! Humidity Indicating Conditions at Maximum Dry-Bulb {BasedOnField A3}
  86959,                                  ! Barometric Pressure {Pa}
  10.9,                                   ! Wind Speed {m/s}
  310,                                    ! Wind Direction {deg}
  0,                                      ! Sky Clearness
  0,                                      ! Rain Indicator
  0,                                      ! Snow Indicator
  21,                                     ! Day of Month
  12,                                     ! Month
  WinterDesignDay,                        ! Day Type
  0,                                      ! Daylight Saving Time Indicator
  Wetbulb,                                ! Humidity Indicating Type
  ,                                       ! Humidity Indicating Day Schedule Name
  DefaultMultipliers,                     ! Dry-Bulb Temperature Range Modifier Type
  ,                                       ! Dry-Bulb Temperature Range Modifier Schedule Name
  ASHRAEClearSky;                         ! Solar Model Indicator

OS:ComponentData,
  {b716df78-ae12-4e36-8a09-bac7b514b134}, ! Handle
  Component Data 1,                       ! Name
  {4763da41-9d46-494b-9fa4-2c0e1ccd4073}, ! UUID
  {72f6f1e9-3439-4bc7-be6d-1669bb5913fa}, ! Version UUID
  1366309991,                             ! Creation Timestamp
  1366309991,                             ! Version Timestamp
  {e0decdab-7759-453c-88d3-3b2b2ed5cc0a}; ! Name of Object 1

