
OS:Version,
  {3e24d6bc-9095-4a70-96d3-586bec2f8911}, ! Handle
  0.9.3;                                  ! Version Identifier

OS:SizingPeriod:DesignDay,
  {2f28821a-89f3-4671-8ec3-4c557fddaf0a}, ! Handle
  Alliance Municipal Ann Clg 1% Condns WB=>MDB, ! Name
  29.6,                                   ! Maximum Dry-Bulb Temperature {C}
  17.3,                                   ! Daily Dry-Bulb Temperature Range {deltaC}
  20.4,                                   ! Humidity Indicating Conditions at Maximum Dry-Bulb {BasedOnField A3}
  87737,                                  ! Barometric Pressure {Pa}
  5.5,                                    ! Wind Speed {m/s}
  170,                                    ! Wind Direction {deg}
  0,                                      ! Sky Clearness
  0,                                      ! Rain Indicator
  0,                                      ! Snow Indicator
  21,                                     ! Day of Month
  7,                                      ! Month
  SummerDesignDay,                        ! Day Type
  0,                                      ! Daylight Saving Time Indicator
  Wetbulb,                                ! Humidity Indicating Type
  ,                                       ! Humidity Indicating Day Schedule Name
  DefaultMultipliers,                     ! Dry-Bulb Temperature Range Modifier Type
  ,                                       ! Dry-Bulb Temperature Range Modifier Schedule Name
  ASHRAETau,                              ! Solar Model Indicator
  ,                                       ! Beam Solar Day Schedule Name
  ,                                       ! Diffuse Solar Day Schedule Name
  0.419,                                  ! ASHRAE Taub {dimensionless}
  2.05;                                   ! ASHRAE Taud {dimensionless}

OS:ComponentData,
  {98bd1975-f4b4-4aab-985c-b461c25c35ca}, ! Handle
  Component Data 1,                       ! Name
  {82ae0c3f-83d5-4759-bf93-2946bd85fd32}, ! UUID
  {9078606a-4780-4011-a990-aab03b512ee1}, ! Version UUID
  1366309082,                             ! Creation Timestamp
  1366309082,                             ! Version Timestamp
  {2f28821a-89f3-4671-8ec3-4c557fddaf0a}; ! Name of Object 1

