
OS:Version,
  {6eaa9cef-a47c-43df-b2ec-0321ac25a3ae}, ! Handle
  0.9.3;                                  ! Version Identifier

OS:SizingPeriod:DesignDay,
  {c6960d19-19b5-4901-a1bb-d571143570a5}, ! Handle
  Kahului Airport Ann Clg .4% Condns DP=>MDB, ! Name
  26.8,                                   ! Maximum Dry-Bulb Temperature {C}
  8.3,                                    ! Daily Dry-Bulb Temperature Range {deltaC}
  23.6,                                   ! Humidity Indicating Conditions at Maximum Dry-Bulb {BasedOnField A3}
  101133,                                 ! Barometric Pressure {Pa}
  7.9,                                    ! Wind Speed {m/s}
  60,                                     ! Wind Direction {deg}
  0,                                      ! Sky Clearness
  0,                                      ! Rain Indicator
  0,                                      ! Snow Indicator
  21,                                     ! Day of Month
  8,                                      ! Month
  SummerDesignDay,                        ! Day Type
  0,                                      ! Daylight Saving Time Indicator
  Dewpoint,                               ! Humidity Indicating Type
  ,                                       ! Humidity Indicating Day Schedule Name
  DefaultMultipliers,                     ! Dry-Bulb Temperature Range Modifier Type
  ,                                       ! Dry-Bulb Temperature Range Modifier Schedule Name
  ASHRAETau,                              ! Solar Model Indicator
  ,                                       ! Beam Solar Day Schedule Name
  ,                                       ! Diffuse Solar Day Schedule Name
  0.383,                                  ! ASHRAE Taub {dimensionless}
  2.519;                                  ! ASHRAE Taud {dimensionless}

OS:ComponentData,
  {8478009c-95ad-4164-a903-136419c18ff3}, ! Handle
  Component Data 1,                       ! Name
  {b14ecce6-e0b8-443a-8f98-1521a1f90e1c}, ! UUID
  {1ca1a427-3126-44ff-bfa9-0e6e7df7619e}, ! Version UUID
  1366307101,                             ! Creation Timestamp
  1366307101,                             ! Version Timestamp
  {c6960d19-19b5-4901-a1bb-d571143570a5}; ! Name of Object 1

