
OS:Version,
  {d50c0f10-e16d-4d4c-84c4-c6bad6fde21b}, ! Handle
  0.9.3;                                  ! Version Identifier

OS:SizingPeriod:DesignDay,
  {24cd20bf-5032-4bdc-84cf-43760207748f}, ! Handle
  Kenai Municipal Ap Ann Clg .4% Condns DB=>MWB, ! Name
  21,                                     ! Maximum Dry-Bulb Temperature {C}
  7.5,                                    ! Daily Dry-Bulb Temperature Range {deltaC}
  14.1,                                   ! Humidity Indicating Conditions at Maximum Dry-Bulb {BasedOnField A3}
  101013,                                 ! Barometric Pressure {Pa}
  4,                                      ! Wind Speed {m/s}
  270,                                    ! Wind Direction {deg}
  0,                                      ! Sky Clearness
  0,                                      ! Rain Indicator
  0,                                      ! Snow Indicator
  21,                                     ! Day of Month
  7,                                      ! Month
  SummerDesignDay,                        ! Day Type
  0,                                      ! Daylight Saving Time Indicator
  Wetbulb,                                ! Humidity Indicating Type
  ,                                       ! Humidity Indicating Day Schedule Name
  DefaultMultipliers,                     ! Dry-Bulb Temperature Range Modifier Type
  ,                                       ! Dry-Bulb Temperature Range Modifier Schedule Name
  ASHRAETau,                              ! Solar Model Indicator
  ,                                       ! Beam Solar Day Schedule Name
  ,                                       ! Diffuse Solar Day Schedule Name
  0.371,                                  ! ASHRAE Taub {dimensionless}
  2.246;                                  ! ASHRAE Taud {dimensionless}

OS:ComponentData,
  {6d8c0435-2e34-470f-aaec-f0effd4339b7}, ! Handle
  Component Data 1,                       ! Name
  {0972f69c-a236-4771-8b33-e1df095c337c}, ! UUID
  {b88930ef-0517-428d-b632-87e6b6e3bcbc}, ! Version UUID
  1366305348,                             ! Creation Timestamp
  1366305348,                             ! Version Timestamp
  {24cd20bf-5032-4bdc-84cf-43760207748f}; ! Name of Object 1

