
OS:Version,
  {2d892970-1c6b-43db-8014-912928cba92d}, ! Handle
  0.9.3;                                  ! Version Identifier

OS:SizingPeriod:DesignDay,
  {edbd7c85-e2c9-469c-8fb0-84cfb77bbb1c}, ! Handle
  Dillon Ann Htg Wind 99% Condns WS=>MCDB, ! Name
  2.1,                                    ! Maximum Dry-Bulb Temperature {C}
  0,                                      ! Daily Dry-Bulb Temperature Range {deltaC}
  2.1,                                    ! Humidity Indicating Conditions at Maximum Dry-Bulb {BasedOnField A3}
  83554,                                  ! Barometric Pressure {Pa}
  11.8,                                   ! Wind Speed {m/s}
  180,                                    ! Wind Direction {deg}
  0,                                      ! Sky Clearness
  0,                                      ! Rain Indicator
  0,                                      ! Snow Indicator
  21,                                     ! Day of Month
  12,                                     ! Month
  WinterDesignDay,                        ! Day Type
  0,                                      ! Daylight Saving Time Indicator
  Wetbulb,                                ! Humidity Indicating Type
  ,                                       ! Humidity Indicating Day Schedule Name
  DefaultMultipliers,                     ! Dry-Bulb Temperature Range Modifier Type
  ,                                       ! Dry-Bulb Temperature Range Modifier Schedule Name
  ASHRAEClearSky;                         ! Solar Model Indicator

OS:ComponentData,
  {b369341a-e06e-4f6b-ae3f-5d31778db573}, ! Handle
  Component Data 1,                       ! Name
  {00b96375-db2c-4a4a-a870-b31995e6d614}, ! UUID
  {0ec67d3a-4d09-4514-8a32-96a38ad7659a}, ! Version UUID
  1366308749,                             ! Creation Timestamp
  1366308749,                             ! Version Timestamp
  {edbd7c85-e2c9-469c-8fb0-84cfb77bbb1c}; ! Name of Object 1

