
OS:Version,
  {9e07b72e-4d74-47b0-a45a-2468002746db}, ! Handle
  0.9.3;                                  ! Version Identifier

OS:SizingPeriod:DesignDay,
  {8c13421c-dce7-4bda-ae34-1963fe4f8f89}, ! Handle
  Dekalb Peachtree Ann Clg 2% Condns DB=>MWB, ! Name
  32.3,                                   ! Maximum Dry-Bulb Temperature {C}
  9.9,                                    ! Daily Dry-Bulb Temperature Range {deltaC}
  22.8,                                   ! Humidity Indicating Conditions at Maximum Dry-Bulb {BasedOnField A3}
  97621,                                  ! Barometric Pressure {Pa}
  3.3,                                    ! Wind Speed {m/s}
  330,                                    ! Wind Direction {deg}
  0,                                      ! Sky Clearness
  0,                                      ! Rain Indicator
  0,                                      ! Snow Indicator
  21,                                     ! Day of Month
  7,                                      ! Month
  SummerDesignDay,                        ! Day Type
  0,                                      ! Daylight Saving Time Indicator
  Wetbulb,                                ! Humidity Indicating Type
  ,                                       ! Humidity Indicating Day Schedule Name
  DefaultMultipliers,                     ! Dry-Bulb Temperature Range Modifier Type
  ,                                       ! Dry-Bulb Temperature Range Modifier Schedule Name
  ASHRAETau,                              ! Solar Model Indicator
  ,                                       ! Beam Solar Day Schedule Name
  ,                                       ! Diffuse Solar Day Schedule Name
  0.554,                                  ! ASHRAE Taub {dimensionless}
  1.783;                                  ! ASHRAE Taud {dimensionless}

OS:ComponentData,
  {5e084237-0c51-44b7-b5dd-61bfdb7abe57}, ! Handle
  Component Data 1,                       ! Name
  {f38e1b99-cbd8-4c19-8662-6bdc6fcd341f}, ! UUID
  {7f67c3c6-4e45-445b-a8ab-bce9ddca9102}, ! Version UUID
  1366307007,                             ! Creation Timestamp
  1366307007,                             ! Version Timestamp
  {8c13421c-dce7-4bda-ae34-1963fe4f8f89}; ! Name of Object 1

