
OS:Version,
  {7da02d18-04c9-4a8b-88ff-3848e35d64cc}, ! Handle
  0.9.3;                                  ! Version Identifier

OS:SizingPeriod:DesignDay,
  {c5546f23-2a50-48ed-9278-ed4df92a2818}, ! Handle
  Farmington Four Corners Regl Ann Clg .4% Condns DB=>MWB, ! Name
  34.9,                                   ! Maximum Dry-Bulb Temperature {C}
  16.1,                                   ! Daily Dry-Bulb Temperature Range {deltaC}
  15.7,                                   ! Humidity Indicating Conditions at Maximum Dry-Bulb {BasedOnField A3}
  82756,                                  ! Barometric Pressure {Pa}
  4.9,                                    ! Wind Speed {m/s}
  240,                                    ! Wind Direction {deg}
  0,                                      ! Sky Clearness
  0,                                      ! Rain Indicator
  0,                                      ! Snow Indicator
  21,                                     ! Day of Month
  7,                                      ! Month
  SummerDesignDay,                        ! Day Type
  0,                                      ! Daylight Saving Time Indicator
  Wetbulb,                                ! Humidity Indicating Type
  ,                                       ! Humidity Indicating Day Schedule Name
  DefaultMultipliers,                     ! Dry-Bulb Temperature Range Modifier Type
  ,                                       ! Dry-Bulb Temperature Range Modifier Schedule Name
  ASHRAETau,                              ! Solar Model Indicator
  ,                                       ! Beam Solar Day Schedule Name
  ,                                       ! Diffuse Solar Day Schedule Name
  0.402,                                  ! ASHRAE Taub {dimensionless}
  2.092;                                  ! ASHRAE Taud {dimensionless}

OS:ComponentData,
  {df4e22e8-bfaa-4cf0-8cd3-8b1e04f6e95c}, ! Handle
  Component Data 1,                       ! Name
  {c2547d30-5681-452a-af57-5ed174031168}, ! UUID
  {66b5f491-0685-4df3-b329-a8a14e3f1a77}, ! Version UUID
  1366309403,                             ! Creation Timestamp
  1366309403,                             ! Version Timestamp
  {c5546f23-2a50-48ed-9278-ed4df92a2818}; ! Name of Object 1

