
OS:Version,
  {0dc2677d-b927-4ca7-ae7a-b489d06082f1}, ! Handle
  0.9.3;                                  ! Version Identifier

OS:SizingPeriod:DesignDay,
  {c852b9c6-7446-413f-b73a-802245d11a21}, ! Handle
  BETHEL Ann Clg .4% Condns DP=>MDB,      ! Name
  16.4,                                   ! Maximum Dry-Bulb Temperature {C}
  7.7,                                    ! Daily Dry-Bulb Temperature Range {deltaC}
  14,                                     ! Humidity Indicating Conditions at Maximum Dry-Bulb {BasedOnField A3}
  100774,                                 ! Barometric Pressure {Pa}
  4.9,                                    ! Wind Speed {m/s}
  10,                                     ! Wind Direction {deg}
  0,                                      ! Sky Clearness
  0,                                      ! Rain Indicator
  0,                                      ! Snow Indicator
  21,                                     ! Day of Month
  7,                                      ! Month
  SummerDesignDay,                        ! Day Type
  0,                                      ! Daylight Saving Time Indicator
  Dewpoint,                               ! Humidity Indicating Type
  ,                                       ! Humidity Indicating Day Schedule Name
  DefaultMultipliers,                     ! Dry-Bulb Temperature Range Modifier Type
  ,                                       ! Dry-Bulb Temperature Range Modifier Schedule Name
  ASHRAETau,                              ! Solar Model Indicator
  ,                                       ! Beam Solar Day Schedule Name
  ,                                       ! Diffuse Solar Day Schedule Name
  0.383,                                  ! ASHRAE Taub {dimensionless}
  2.185;                                  ! ASHRAE Taud {dimensionless}

OS:ComponentData,
  {eceda056-476a-4c21-9be5-b3afae106bc9}, ! Handle
  Component Data 1,                       ! Name
  {ea8a0331-f213-4600-a4b0-ce620e70eab1}, ! UUID
  {25502395-df55-455b-ab38-23f999e4cb0f}, ! Version UUID
  1366304748,                             ! Creation Timestamp
  1366304748,                             ! Version Timestamp
  {c852b9c6-7446-413f-b73a-802245d11a21}; ! Name of Object 1

