
OS:Version,
  {76c69f3e-9f4e-40fa-b3df-c2fefc64f8b3}, ! Handle
  0.9.3;                                  ! Version Identifier

OS:SizingPeriod:DesignDay,
  {a8d16d52-f8a5-4b41-b8e0-52d653cd885c}, ! Handle
  ALPENA Ann Clg .4% Condns DB=>MWB,      ! Name
  31.2,                                   ! Maximum Dry-Bulb Temperature {C}
  12.7,                                   ! Daily Dry-Bulb Temperature Range {deltaC}
  22.2,                                   ! Humidity Indicating Conditions at Maximum Dry-Bulb {BasedOnField A3}
  98828,                                  ! Barometric Pressure {Pa}
  4.8,                                    ! Wind Speed {m/s}
  230,                                    ! Wind Direction {deg}
  0,                                      ! Sky Clearness
  0,                                      ! Rain Indicator
  0,                                      ! Snow Indicator
  21,                                     ! Day of Month
  7,                                      ! Month
  SummerDesignDay,                        ! Day Type
  0,                                      ! Daylight Saving Time Indicator
  Wetbulb,                                ! Humidity Indicating Type
  ,                                       ! Humidity Indicating Day Schedule Name
  DefaultMultipliers,                     ! Dry-Bulb Temperature Range Modifier Type
  ,                                       ! Dry-Bulb Temperature Range Modifier Schedule Name
  ASHRAETau,                              ! Solar Model Indicator
  ,                                       ! Beam Solar Day Schedule Name
  ,                                       ! Diffuse Solar Day Schedule Name
  0.42,                                   ! ASHRAE Taub {dimensionless}
  2.176;                                  ! ASHRAE Taud {dimensionless}

OS:ComponentData,
  {617017b0-5764-4a30-b390-6bb5c8b91c13}, ! Handle
  Component Data 1,                       ! Name
  {dd3598f1-3273-4dc1-b359-df1fb7b7ed38}, ! UUID
  {b025a5f5-f054-4894-a3ba-bc7b8e06e33c}, ! Version UUID
  1366307938,                             ! Creation Timestamp
  1366307938,                             ! Version Timestamp
  {a8d16d52-f8a5-4b41-b8e0-52d653cd885c}; ! Name of Object 1

