
OS:Version,
  {513c3cde-2caf-47e4-baf1-d0d85be7f318}, ! Handle
  0.9.3;                                  ! Version Identifier

OS:SizingPeriod:DesignDay,
  {b01d1f98-25eb-4cd6-bf17-e31da5a64fc4}, ! Handle
  Indianapolis Ann Clg 1% Condns Enth=>MDB, ! Name
  29.7,                                   ! Maximum Dry-Bulb Temperature {C}
  10.2,                                   ! Daily Dry-Bulb Temperature Range {deltaC}
  76800,                                  ! Humidity Indicating Conditions at Maximum Dry-Bulb {BasedOnField A3}
  98404,                                  ! Barometric Pressure {Pa}
  4.8,                                    ! Wind Speed {m/s}
  220,                                    ! Wind Direction {deg}
  0,                                      ! Sky Clearness
  0,                                      ! Rain Indicator
  0,                                      ! Snow Indicator
  21,                                     ! Day of Month
  7,                                      ! Month
  SummerDesignDay,                        ! Day Type
  0,                                      ! Daylight Saving Time Indicator
  Enthalpy,                               ! Humidity Indicating Type
  ,                                       ! Humidity Indicating Day Schedule Name
  DefaultMultipliers,                     ! Dry-Bulb Temperature Range Modifier Type
  ,                                       ! Dry-Bulb Temperature Range Modifier Schedule Name
  ASHRAETau,                              ! Solar Model Indicator
  ,                                       ! Beam Solar Day Schedule Name
  ,                                       ! Diffuse Solar Day Schedule Name
  0.48,                                   ! ASHRAE Taub {dimensionless}
  1.954;                                  ! ASHRAE Taud {dimensionless}

OS:ComponentData,
  {3f9cb720-e91f-48ad-aa10-fb10d7b0bdc5}, ! Handle
  Component Data 1,                       ! Name
  {2b3dca4e-aa0c-4af5-a2ee-5ed65c3136c5}, ! UUID
  {dfc1e0e7-0df1-4415-b47b-eaecf7a3044f}, ! Version UUID
  1366307465,                             ! Creation Timestamp
  1366307465,                             ! Version Timestamp
  {b01d1f98-25eb-4cd6-bf17-e31da5a64fc4}; ! Name of Object 1

