
OS:Version,
  {832aa34a-7c9a-4e8c-9659-dbc2b08e2cb7}, ! Handle
  0.9.3;                                  ! Version Identifier

OS:SizingPeriod:DesignDay,
  {bd54fda2-8a06-421d-8cae-1894ccf76238}, ! Handle
  Anvik Ann Clg 1% Condns Enth=>MDB,      ! Name
  20,                                     ! Maximum Dry-Bulb Temperature {C}
  8.2,                                    ! Daily Dry-Bulb Temperature Range {deltaC}
  39400,                                  ! Humidity Indicating Conditions at Maximum Dry-Bulb {BasedOnField A3}
  100141,                                 ! Barometric Pressure {Pa}
  2,                                      ! Wind Speed {m/s}
  10,                                     ! Wind Direction {deg}
  0,                                      ! Sky Clearness
  0,                                      ! Rain Indicator
  0,                                      ! Snow Indicator
  21,                                     ! Day of Month
  7,                                      ! Month
  SummerDesignDay,                        ! Day Type
  0,                                      ! Daylight Saving Time Indicator
  Enthalpy,                               ! Humidity Indicating Type
  ,                                       ! Humidity Indicating Day Schedule Name
  DefaultMultipliers,                     ! Dry-Bulb Temperature Range Modifier Type
  ,                                       ! Dry-Bulb Temperature Range Modifier Schedule Name
  ASHRAETau,                              ! Solar Model Indicator
  ,                                       ! Beam Solar Day Schedule Name
  ,                                       ! Diffuse Solar Day Schedule Name
  0.369,                                  ! ASHRAE Taub {dimensionless}
  2.27;                                   ! ASHRAE Taud {dimensionless}

