
OS:Version,
  {8f715b1f-b7a1-44e0-9680-c72c13ee957d}, ! Handle
  0.9.3;                                  ! Version Identifier

OS:SizingPeriod:DesignDay,
  {d7290ad9-aafe-4cfa-a429-04df3aa9f05c}, ! Handle
  Gunnison Co   Awos Ann Hum_n 99.6% Condns DP=>MCDB, ! Name
  -24.9,                                  ! Maximum Dry-Bulb Temperature {C}
  0,                                      ! Daily Dry-Bulb Temperature Range {deltaC}
  -32.5,                                  ! Humidity Indicating Conditions at Maximum Dry-Bulb {BasedOnField A3}
  76206,                                  ! Barometric Pressure {Pa}
  0.5,                                    ! Wind Speed {m/s}
  70,                                     ! Wind Direction {deg}
  0,                                      ! Sky Clearness
  0,                                      ! Rain Indicator
  0,                                      ! Snow Indicator
  21,                                     ! Day of Month
  1,                                      ! Month
  WinterDesignDay,                        ! Day Type
  0,                                      ! Daylight Saving Time Indicator
  Dewpoint,                               ! Humidity Indicating Type
  ,                                       ! Humidity Indicating Day Schedule Name
  DefaultMultipliers,                     ! Dry-Bulb Temperature Range Modifier Type
  ,                                       ! Dry-Bulb Temperature Range Modifier Schedule Name
  ASHRAEClearSky;                         ! Solar Model Indicator

OS:ComponentData,
  {03b92de5-eeaf-4e81-804e-2cd2076c1a42}, ! Handle
  Component Data 1,                       ! Name
  {66e34794-3c6e-4552-b7cb-8c286210515a}, ! UUID
  {151d94a9-2746-4d36-985f-3de9db23b972}, ! Version UUID
  1366306709,                             ! Creation Timestamp
  1366306709,                             ! Version Timestamp
  {d7290ad9-aafe-4cfa-a429-04df3aa9f05c}; ! Name of Object 1

