
OS:Version,
  {cbca54eb-740c-4317-8653-b1f51d94f978}, ! Handle
  0.9.3;                                  ! Version Identifier

OS:SizingPeriod:DesignDay,
  {b17eca3c-7766-4392-8ffc-f89080494f8c}, ! Handle
  Big Delta/Ft Greely Ann Clg 1% Condns WB=>MDB, ! Name
  22,                                     ! Maximum Dry-Bulb Temperature {C}
  9.5,                                    ! Daily Dry-Bulb Temperature Range {deltaC}
  14.8,                                   ! Humidity Indicating Conditions at Maximum Dry-Bulb {BasedOnField A3}
  96715,                                  ! Barometric Pressure {Pa}
  3.3,                                    ! Wind Speed {m/s}
  310,                                    ! Wind Direction {deg}
  0,                                      ! Sky Clearness
  0,                                      ! Rain Indicator
  0,                                      ! Snow Indicator
  21,                                     ! Day of Month
  7,                                      ! Month
  SummerDesignDay,                        ! Day Type
  0,                                      ! Daylight Saving Time Indicator
  Wetbulb,                                ! Humidity Indicating Type
  ,                                       ! Humidity Indicating Day Schedule Name
  DefaultMultipliers,                     ! Dry-Bulb Temperature Range Modifier Type
  ,                                       ! Dry-Bulb Temperature Range Modifier Schedule Name
  ASHRAETau,                              ! Solar Model Indicator
  ,                                       ! Beam Solar Day Schedule Name
  ,                                       ! Diffuse Solar Day Schedule Name
  0.398,                                  ! ASHRAE Taub {dimensionless}
  2.083;                                  ! ASHRAE Taud {dimensionless}

