
OS:Version,
  {995eef82-fba7-49d7-9787-e6c7dc0b3e7b}, ! Handle
  0.9.3;                                  ! Version Identifier

OS:SizingPeriod:DesignDay,
  {40cc513f-6d3a-4995-92fc-2fb0ca9725d4}, ! Handle
  Aurora Municipal Ann Clg .4% Condns WB=>MDB, ! Name
  30.6,                                   ! Maximum Dry-Bulb Temperature {C}
  12,                                     ! Daily Dry-Bulb Temperature Range {deltaC}
  25.4,                                   ! Humidity Indicating Conditions at Maximum Dry-Bulb {BasedOnField A3}
  98769,                                  ! Barometric Pressure {Pa}
  4.9,                                    ! Wind Speed {m/s}
  230,                                    ! Wind Direction {deg}
  0,                                      ! Sky Clearness
  0,                                      ! Rain Indicator
  0,                                      ! Snow Indicator
  21,                                     ! Day of Month
  7,                                      ! Month
  SummerDesignDay,                        ! Day Type
  0,                                      ! Daylight Saving Time Indicator
  Wetbulb,                                ! Humidity Indicating Type
  ,                                       ! Humidity Indicating Day Schedule Name
  DefaultMultipliers,                     ! Dry-Bulb Temperature Range Modifier Type
  ,                                       ! Dry-Bulb Temperature Range Modifier Schedule Name
  ASHRAETau,                              ! Solar Model Indicator
  ,                                       ! Beam Solar Day Schedule Name
  ,                                       ! Diffuse Solar Day Schedule Name
  0.447,                                  ! ASHRAE Taub {dimensionless}
  2.079;                                  ! ASHRAE Taud {dimensionless}

OS:ComponentData,
  {78bf3e04-a22d-4912-ab9f-7f85239a0e4f}, ! Handle
  Component Data 1,                       ! Name
  {37d009df-d404-4cd0-94e6-2ea0cceeec70}, ! UUID
  {f12f6f62-c289-4be3-9dd3-342a3ed92edb}, ! Version UUID
  1366307319,                             ! Creation Timestamp
  1366307319,                             ! Version Timestamp
  {40cc513f-6d3a-4995-92fc-2fb0ca9725d4}; ! Name of Object 1

