
OS:Version,
  {114d39ee-73cb-4b38-92a4-d29a357923a0}, ! Handle
  0.9.3;                                  ! Version Identifier

OS:SizingPeriod:DesignDay,
  {a0771fb9-28da-4767-9b29-07743b60cebc}, ! Handle
  Alpena Ann Htg 99.6% Condns DB,         ! Name
  -20.9,                                  ! Maximum Dry-Bulb Temperature {C}
  0,                                      ! Daily Dry-Bulb Temperature Range {deltaC}
  -20.9,                                  ! Humidity Indicating Conditions at Maximum Dry-Bulb {BasedOnField A3}
  98816,                                  ! Barometric Pressure {Pa}
  2,                                      ! Wind Speed {m/s}
  260,                                    ! Wind Direction {deg}
  0,                                      ! Sky Clearness
  0,                                      ! Rain Indicator
  0,                                      ! Snow Indicator
  21,                                     ! Day of Month
  1,                                      ! Month
  WinterDesignDay,                        ! Day Type
  0,                                      ! Daylight Saving Time Indicator
  Wetbulb,                                ! Humidity Indicating Type
  ,                                       ! Humidity Indicating Day Schedule Name
  DefaultMultipliers,                     ! Dry-Bulb Temperature Range Modifier Type
  ,                                       ! Dry-Bulb Temperature Range Modifier Schedule Name
  ASHRAEClearSky;                         ! Solar Model Indicator

OS:ComponentData,
  {7e95528e-b031-4b21-98e7-142fa71c0b98}, ! Handle
  Component Data 1,                       ! Name
  {af58153e-82fd-470b-a5eb-e5806a802f1b}, ! UUID
  {d7135cb9-b35d-44c1-8493-966584318523}, ! Version UUID
  1366307941,                             ! Creation Timestamp
  1366307941,                             ! Version Timestamp
  {a0771fb9-28da-4767-9b29-07743b60cebc}; ! Name of Object 1

