
OS:Version,
  {01dc0def-f3ac-42a0-8526-3a7fe79ec59d}, ! Handle
  0.9.3;                                  ! Version Identifier

OS:SizingPeriod:DesignDay,
  {88abedf6-4585-4995-8a03-94560037169a}, ! Handle
  Atlantic City Intl Ap Ann Hum_n 99.6% Condns DP=>MCDB, ! Name
  -9.3,                                   ! Maximum Dry-Bulb Temperature {C}
  0,                                      ! Daily Dry-Bulb Temperature Range {deltaC}
  -19.5,                                  ! Humidity Indicating Conditions at Maximum Dry-Bulb {BasedOnField A3}
  101109,                                 ! Barometric Pressure {Pa}
  3.5,                                    ! Wind Speed {m/s}
  290,                                    ! Wind Direction {deg}
  0,                                      ! Sky Clearness
  0,                                      ! Rain Indicator
  0,                                      ! Snow Indicator
  21,                                     ! Day of Month
  1,                                      ! Month
  WinterDesignDay,                        ! Day Type
  0,                                      ! Daylight Saving Time Indicator
  Dewpoint,                               ! Humidity Indicating Type
  ,                                       ! Humidity Indicating Day Schedule Name
  DefaultMultipliers,                     ! Dry-Bulb Temperature Range Modifier Type
  ,                                       ! Dry-Bulb Temperature Range Modifier Schedule Name
  ASHRAEClearSky;                         ! Solar Model Indicator

OS:ComponentData,
  {0272c32f-4a7d-498f-ac4a-c2cbc6fc91ba}, ! Handle
  Component Data 1,                       ! Name
  {be616f0b-9adc-4d1f-b9bf-ddd15274f03b}, ! UUID
  {0b4daf66-80d6-4cb2-8fe5-12b9f746354b}, ! Version UUID
  1366309288,                             ! Creation Timestamp
  1366309288,                             ! Version Timestamp
  {88abedf6-4585-4995-8a03-94560037169a}; ! Name of Object 1

