
OS:Version,
  {59eb7a95-cb92-4d10-af9e-516ff9fde4f9}, ! Handle
  0.9.3;                                  ! Version Identifier

OS:SizingPeriod:DesignDay,
  {7316a6b6-6e3a-4d12-a998-3f7882596a53}, ! Handle
  DETROIT Ann Clg .4% Condns Enth=>MDB,   ! Name
  30.1,                                   ! Maximum Dry-Bulb Temperature {C}
  10.4,                                   ! Daily Dry-Bulb Temperature Range {deltaC}
  76800,                                  ! Humidity Indicating Conditions at Maximum Dry-Bulb {BasedOnField A3}
  99051,                                  ! Barometric Pressure {Pa}
  5.9,                                    ! Wind Speed {m/s}
  240,                                    ! Wind Direction {deg}
  0,                                      ! Sky Clearness
  0,                                      ! Rain Indicator
  0,                                      ! Snow Indicator
  21,                                     ! Day of Month
  7,                                      ! Month
  SummerDesignDay,                        ! Day Type
  0,                                      ! Daylight Saving Time Indicator
  Enthalpy,                               ! Humidity Indicating Type
  ,                                       ! Humidity Indicating Day Schedule Name
  DefaultMultipliers,                     ! Dry-Bulb Temperature Range Modifier Type
  ,                                       ! Dry-Bulb Temperature Range Modifier Schedule Name
  ASHRAETau,                              ! Solar Model Indicator
  ,                                       ! Beam Solar Day Schedule Name
  ,                                       ! Diffuse Solar Day Schedule Name
  0.47,                                   ! ASHRAE Taub {dimensionless}
  1.978;                                  ! ASHRAE Taud {dimensionless}

OS:ComponentData,
  {d8316940-f37e-4408-9f75-0f3277b5fcec}, ! Handle
  Component Data 1,                       ! Name
  {7890600e-737c-4461-ae2d-e11d74ef9f2d}, ! UUID
  {42a732ad-0198-45e2-9726-9ecb35cd8852}, ! Version UUID
  1366307981,                             ! Creation Timestamp
  1366307981,                             ! Version Timestamp
  {7316a6b6-6e3a-4d12-a998-3f7882596a53}; ! Name of Object 1

