
OS:Version,
  {25d67efe-a9f9-4837-83ac-c075ae0ffe26}, ! Handle
  0.9.3;                                  ! Version Identifier

OS:SizingPeriod:DesignDay,
  {d9b7b58d-2f16-49ae-b780-1f51ed65cee1}, ! Handle
  Fairbanks Eielson A Ann Clg .4% Condns DB=>MWB, ! Name
  27.4,                                   ! Maximum Dry-Bulb Temperature {C}
  10.7,                                   ! Daily Dry-Bulb Temperature Range {deltaC}
  16.2,                                   ! Humidity Indicating Conditions at Maximum Dry-Bulb {BasedOnField A3}
  99335,                                  ! Barometric Pressure {Pa}
  2.7,                                    ! Wind Speed {m/s}
  270,                                    ! Wind Direction {deg}
  0,                                      ! Sky Clearness
  0,                                      ! Rain Indicator
  0,                                      ! Snow Indicator
  21,                                     ! Day of Month
  7,                                      ! Month
  SummerDesignDay,                        ! Day Type
  0,                                      ! Daylight Saving Time Indicator
  Wetbulb,                                ! Humidity Indicating Type
  ,                                       ! Humidity Indicating Day Schedule Name
  DefaultMultipliers,                     ! Dry-Bulb Temperature Range Modifier Type
  ,                                       ! Dry-Bulb Temperature Range Modifier Schedule Name
  ASHRAETau,                              ! Solar Model Indicator
  ,                                       ! Beam Solar Day Schedule Name
  ,                                       ! Diffuse Solar Day Schedule Name
  0.386,                                  ! ASHRAE Taub {dimensionless}
  2.208;                                  ! ASHRAE Taud {dimensionless}

OS:ComponentData,
  {ce5118a9-a9fd-4c29-8f86-ead4d630efc3}, ! Handle
  Component Data 1,                       ! Name
  {b9d03d60-633e-4fab-93ce-f13abbb9a071}, ! UUID
  {7e099a7e-8069-4805-a532-3707e4819178}, ! Version UUID
  1366305244,                             ! Creation Timestamp
  1366305244,                             ! Version Timestamp
  {d9b7b58d-2f16-49ae-b780-1f51ed65cee1}; ! Name of Object 1

