
OS:Version,
  {7623d5e7-3802-4afe-8512-5f695694a236}, ! Handle
  0.9.3;                                  ! Version Identifier

OS:SizingPeriod:DesignDay,
  {b22f5665-130f-418d-8e1e-4195f9c41625}, ! Handle
  BRADFORD Ann Clg 2% Condns DP=>MDB,     ! Name
  22.3,                                   ! Maximum Dry-Bulb Temperature {C}
  11.9,                                   ! Daily Dry-Bulb Temperature Range {deltaC}
  19.1,                                   ! Humidity Indicating Conditions at Maximum Dry-Bulb {BasedOnField A3}
  94322,                                  ! Barometric Pressure {Pa}
  4.1,                                    ! Wind Speed {m/s}
  270,                                    ! Wind Direction {deg}
  0,                                      ! Sky Clearness
  0,                                      ! Rain Indicator
  0,                                      ! Snow Indicator
  21,                                     ! Day of Month
  7,                                      ! Month
  SummerDesignDay,                        ! Day Type
  0,                                      ! Daylight Saving Time Indicator
  Dewpoint,                               ! Humidity Indicating Type
  ,                                       ! Humidity Indicating Day Schedule Name
  DefaultMultipliers,                     ! Dry-Bulb Temperature Range Modifier Type
  ,                                       ! Dry-Bulb Temperature Range Modifier Schedule Name
  ASHRAETau,                              ! Solar Model Indicator
  ,                                       ! Beam Solar Day Schedule Name
  ,                                       ! Diffuse Solar Day Schedule Name
  0.423,                                  ! ASHRAE Taub {dimensionless}
  2.114;                                  ! ASHRAE Taud {dimensionless}

OS:ComponentData,
  {32e14ede-08ab-4ed1-bcde-6d6e4c7a89ec}, ! Handle
  Component Data 1,                       ! Name
  {4674959a-2f67-429c-834f-3da51d4fddaf}, ! UUID
  {49075cb8-e1d0-4aac-830f-f7239684db41}, ! Version UUID
  1366310146,                             ! Creation Timestamp
  1366310146,                             ! Version Timestamp
  {b22f5665-130f-418d-8e1e-4195f9c41625}; ! Name of Object 1

