
OS:Version,
  {d76cd3d7-aaa1-4275-820d-35570bc80286}, ! Handle
  0.9.3;                                  ! Version Identifier

OS:SizingPeriod:DesignDay,
  {d2182abc-cfac-4706-9ea9-b29964061802}, ! Handle
  Del Rio Laughlin Afb Ann Htg Wind 99% Condns WS=>MCDB, ! Name
  11.2,                                   ! Maximum Dry-Bulb Temperature {C}
  0,                                      ! Daily Dry-Bulb Temperature Range {deltaC}
  11.2,                                   ! Humidity Indicating Conditions at Maximum Dry-Bulb {BasedOnField A3}
  97458,                                  ! Barometric Pressure {Pa}
  10.5,                                   ! Wind Speed {m/s}
  10,                                     ! Wind Direction {deg}
  0,                                      ! Sky Clearness
  0,                                      ! Rain Indicator
  0,                                      ! Snow Indicator
  21,                                     ! Day of Month
  1,                                      ! Month
  WinterDesignDay,                        ! Day Type
  0,                                      ! Daylight Saving Time Indicator
  Wetbulb,                                ! Humidity Indicating Type
  ,                                       ! Humidity Indicating Day Schedule Name
  DefaultMultipliers,                     ! Dry-Bulb Temperature Range Modifier Type
  ,                                       ! Dry-Bulb Temperature Range Modifier Schedule Name
  ASHRAEClearSky;                         ! Solar Model Indicator

OS:ComponentData,
  {d95ca96c-bca8-43c2-8c73-e700a2550a13}, ! Handle
  Component Data 1,                       ! Name
  {76d79089-6b34-4b82-882b-fc93383dd412}, ! UUID
  {09e41579-81fb-4e66-a15d-8045c1d1fc8d}, ! Version UUID
  1366310667,                             ! Creation Timestamp
  1366310667,                             ! Version Timestamp
  {d2182abc-cfac-4706-9ea9-b29964061802}; ! Name of Object 1

