
OS:Version,
  {15c54903-faa7-4efa-9c3b-39ff3f98348a}, ! Handle
  0.9.3;                                  ! Version Identifier

OS:SizingPeriod:DesignDay,
  {6d7b8fc4-c909-439d-bef3-1a6f72a431a3}, ! Handle
  Albany County Ap Ann Clg 1% Condns Enth=>MDB, ! Name
  27.9,                                   ! Maximum Dry-Bulb Temperature {C}
  11.1,                                   ! Daily Dry-Bulb Temperature Range {deltaC}
  70000,                                  ! Humidity Indicating Conditions at Maximum Dry-Bulb {BasedOnField A3}
  100320,                                 ! Barometric Pressure {Pa}
  4.4,                                    ! Wind Speed {m/s}
  180,                                    ! Wind Direction {deg}
  0,                                      ! Sky Clearness
  0,                                      ! Rain Indicator
  0,                                      ! Snow Indicator
  21,                                     ! Day of Month
  7,                                      ! Month
  SummerDesignDay,                        ! Day Type
  0,                                      ! Daylight Saving Time Indicator
  Enthalpy,                               ! Humidity Indicating Type
  ,                                       ! Humidity Indicating Day Schedule Name
  DefaultMultipliers,                     ! Dry-Bulb Temperature Range Modifier Type
  ,                                       ! Dry-Bulb Temperature Range Modifier Schedule Name
  ASHRAETau,                              ! Solar Model Indicator
  ,                                       ! Beam Solar Day Schedule Name
  ,                                       ! Diffuse Solar Day Schedule Name
  0.49,                                   ! ASHRAE Taub {dimensionless}
  1.923;                                  ! ASHRAE Taud {dimensionless}

OS:ComponentData,
  {304c3e5a-f1cd-4388-8198-282df8f2cca5}, ! Handle
  Component Data 1,                       ! Name
  {4a0151ad-028a-4ab3-955c-99e75d1531ae}, ! UUID
  {63d9d532-328f-4d44-859d-6ef6b9b6e466}, ! Version UUID
  1366309586,                             ! Creation Timestamp
  1366309586,                             ! Version Timestamp
  {6d7b8fc4-c909-439d-bef3-1a6f72a431a3}; ! Name of Object 1

