
OS:Version,
  {1e441c25-c7b6-488f-a64f-1b11f7ee1e28}, ! Handle
  0.9.3;                                  ! Version Identifier

OS:SizingPeriod:DesignDay,
  {ec8e3343-5286-42da-84b3-19d052e21ac3}, ! Handle
  Grand Canyon Natl P Ann Clg 2% Condns DP=>MDB, ! Name
  17.8,                                   ! Maximum Dry-Bulb Temperature {C}
  19.6,                                   ! Daily Dry-Bulb Temperature Range {deltaC}
  12.8,                                   ! Humidity Indicating Conditions at Maximum Dry-Bulb {BasedOnField A3}
  78856,                                  ! Barometric Pressure {Pa}
  4.6,                                    ! Wind Speed {m/s}
  230,                                    ! Wind Direction {deg}
  0,                                      ! Sky Clearness
  0,                                      ! Rain Indicator
  0,                                      ! Snow Indicator
  21,                                     ! Day of Month
  7,                                      ! Month
  SummerDesignDay,                        ! Day Type
  0,                                      ! Daylight Saving Time Indicator
  Dewpoint,                               ! Humidity Indicating Type
  ,                                       ! Humidity Indicating Day Schedule Name
  DefaultMultipliers,                     ! Dry-Bulb Temperature Range Modifier Type
  ,                                       ! Dry-Bulb Temperature Range Modifier Schedule Name
  ASHRAETau,                              ! Solar Model Indicator
  ,                                       ! Beam Solar Day Schedule Name
  ,                                       ! Diffuse Solar Day Schedule Name
  0.378,                                  ! ASHRAE Taub {dimensionless}
  2.158;                                  ! ASHRAE Taud {dimensionless}

OS:ComponentData,
  {819be511-884c-4963-8517-ed9cb8052c3b}, ! Handle
  Component Data 1,                       ! Name
  {5d42041c-9155-475c-99f0-6688d91ff746}, ! UUID
  {d76e58e5-8c32-4a48-bebc-3284a53ef5b4}, ! Version UUID
  1366306278,                             ! Creation Timestamp
  1366306278,                             ! Version Timestamp
  {ec8e3343-5286-42da-84b3-19d052e21ac3}; ! Name of Object 1

