
OS:Version,
  {76cf703f-cdc9-4d46-bb7d-a10feff0342d}, ! Handle
  0.9.3;                                  ! Version Identifier

OS:SizingPeriod:DesignDay,
  {9f25c760-9259-4ba8-85ac-16e64966ecee}, ! Handle
  Covington/Cincinnati O Ann Clg 1% Condns DB=>MWB, ! Name
  31.6,                                   ! Maximum Dry-Bulb Temperature {C}
  10.3,                                   ! Daily Dry-Bulb Temperature Range {deltaC}
  23.2,                                   ! Humidity Indicating Conditions at Maximum Dry-Bulb {BasedOnField A3}
  98158,                                  ! Barometric Pressure {Pa}
  4.3,                                    ! Wind Speed {m/s}
  230,                                    ! Wind Direction {deg}
  0,                                      ! Sky Clearness
  0,                                      ! Rain Indicator
  0,                                      ! Snow Indicator
  21,                                     ! Day of Month
  7,                                      ! Month
  SummerDesignDay,                        ! Day Type
  0,                                      ! Daylight Saving Time Indicator
  Wetbulb,                                ! Humidity Indicating Type
  ,                                       ! Humidity Indicating Day Schedule Name
  DefaultMultipliers,                     ! Dry-Bulb Temperature Range Modifier Type
  ,                                       ! Dry-Bulb Temperature Range Modifier Schedule Name
  ASHRAETau,                              ! Solar Model Indicator
  ,                                       ! Beam Solar Day Schedule Name
  ,                                       ! Diffuse Solar Day Schedule Name
  0.493,                                  ! ASHRAE Taub {dimensionless}
  1.911;                                  ! ASHRAE Taud {dimensionless}

OS:ComponentData,
  {173a1fe7-227f-475e-a2e1-a8077dd77196}, ! Handle
  Component Data 1,                       ! Name
  {6af0b521-4142-4d99-ac19-2b352663d12c}, ! UUID
  {0ff7ae13-8918-481a-974c-eb2ccffe53c3}, ! Version UUID
  1366307616,                             ! Creation Timestamp
  1366307616,                             ! Version Timestamp
  {9f25c760-9259-4ba8-85ac-16e64966ecee}; ! Name of Object 1

