
OS:Version,
  {790e0422-f86a-4437-85f3-98863de4a992}, ! Handle
  0.9.3;                                  ! Version Identifier

OS:SizingPeriod:DesignDay,
  {d58ba574-747e-4e09-bc0c-1b958c0d7b40}, ! Handle
  Crescent City Faa Ai Ann Clg .4% Condns DB=>MWB, ! Name
  20,                                     ! Maximum Dry-Bulb Temperature {C}
  5.7,                                    ! Daily Dry-Bulb Temperature Range {deltaC}
  14.8,                                   ! Humidity Indicating Conditions at Maximum Dry-Bulb {BasedOnField A3}
  101121,                                 ! Barometric Pressure {Pa}
  3.9,                                    ! Wind Speed {m/s}
  310,                                    ! Wind Direction {deg}
  0,                                      ! Sky Clearness
  0,                                      ! Rain Indicator
  0,                                      ! Snow Indicator
  21,                                     ! Day of Month
  8,                                      ! Month
  SummerDesignDay,                        ! Day Type
  0,                                      ! Daylight Saving Time Indicator
  Wetbulb,                                ! Humidity Indicating Type
  ,                                       ! Humidity Indicating Day Schedule Name
  DefaultMultipliers,                     ! Dry-Bulb Temperature Range Modifier Type
  ,                                       ! Dry-Bulb Temperature Range Modifier Schedule Name
  ASHRAETau,                              ! Solar Model Indicator
  ,                                       ! Beam Solar Day Schedule Name
  ,                                       ! Diffuse Solar Day Schedule Name
  0.362,                                  ! ASHRAE Taub {dimensionless}
  2.529;                                  ! ASHRAE Taud {dimensionless}

OS:ComponentData,
  {a22003d8-4195-4a05-94d7-5565b78a05c4}, ! Handle
  Component Data 1,                       ! Name
  {2631aeb3-a77a-4b7a-99b4-e1a2820796b5}, ! UUID
  {db529bd2-79c5-43ef-a783-6275dafeb2c9}, ! Version UUID
  1366306418,                             ! Creation Timestamp
  1366306418,                             ! Version Timestamp
  {d58ba574-747e-4e09-bc0c-1b958c0d7b40}; ! Name of Object 1

