
OS:Version,
  {7c73c0e1-b34f-44b5-aa13-cac960231f22}, ! Handle
  0.9.3;                                  ! Version Identifier

OS:SizingPeriod:DesignDay,
  {8ef3a4a3-5cc3-48bf-bca6-e4d090311dec}, ! Handle
  Annette Island Ap Ann Htg Wind 99% Condns WS=>MCDB, ! Name
  6.4,                                    ! Maximum Dry-Bulb Temperature {C}
  0,                                      ! Daily Dry-Bulb Temperature Range {deltaC}
  6.4,                                    ! Humidity Indicating Conditions at Maximum Dry-Bulb {BasedOnField A3}
  100929,                                 ! Barometric Pressure {Pa}
  12.6,                                   ! Wind Speed {m/s}
  50,                                     ! Wind Direction {deg}
  0,                                      ! Sky Clearness
  0,                                      ! Rain Indicator
  0,                                      ! Snow Indicator
  21,                                     ! Day of Month
  1,                                      ! Month
  WinterDesignDay,                        ! Day Type
  0,                                      ! Daylight Saving Time Indicator
  Wetbulb,                                ! Humidity Indicating Type
  ,                                       ! Humidity Indicating Day Schedule Name
  DefaultMultipliers,                     ! Dry-Bulb Temperature Range Modifier Type
  ,                                       ! Dry-Bulb Temperature Range Modifier Schedule Name
  ASHRAEClearSky;                         ! Solar Model Indicator

OS:ComponentData,
  {c03ebd80-2973-41e8-ae5f-f144bdd91fed}, ! Handle
  Component Data 1,                       ! Name
  {b8749249-a2e3-490c-86e7-84b76a38bc57}, ! UUID
  {1a3b85b7-0e7d-41ec-aefa-bfe488f9aaff}, ! Version UUID
  1366304727,                             ! Creation Timestamp
  1366304727,                             ! Version Timestamp
  {8ef3a4a3-5cc3-48bf-bca6-e4d090311dec}; ! Name of Object 1

