
OS:Version,
  {a288c655-dc21-4109-b2bd-de24793e26b0}, ! Handle
  0.9.3;                                  ! Version Identifier

OS:SizingPeriod:DesignDay,
  {9ddca584-d1cd-4edd-b26c-f99a6d4463a8}, ! Handle
  Dillingham  Amos Ann Hum_n 99% Condns DP=>MCDB, ! Name
  -23.9,                                  ! Maximum Dry-Bulb Temperature {C}
  0,                                      ! Daily Dry-Bulb Temperature Range {deltaC}
  -31.7,                                  ! Humidity Indicating Conditions at Maximum Dry-Bulb {BasedOnField A3}
  100977,                                 ! Barometric Pressure {Pa}
  2,                                      ! Wind Speed {m/s}
  10,                                     ! Wind Direction {deg}
  0,                                      ! Sky Clearness
  0,                                      ! Rain Indicator
  0,                                      ! Snow Indicator
  21,                                     ! Day of Month
  1,                                      ! Month
  WinterDesignDay,                        ! Day Type
  0,                                      ! Daylight Saving Time Indicator
  Dewpoint,                               ! Humidity Indicating Type
  ,                                       ! Humidity Indicating Day Schedule Name
  DefaultMultipliers,                     ! Dry-Bulb Temperature Range Modifier Type
  ,                                       ! Dry-Bulb Temperature Range Modifier Schedule Name
  ASHRAEClearSky;                         ! Solar Model Indicator

OS:ComponentData,
  {7a682224-e602-44c8-bcd8-361f69b842e1}, ! Handle
  Component Data 1,                       ! Name
  {371377c1-7abb-4d6f-a27b-f65a81dcfacb}, ! UUID
  {75a04fb1-4c11-4a69-ad6e-8e7e95ed8d68}, ! Version UUID
  1366305228,                             ! Creation Timestamp
  1366305228,                             ! Version Timestamp
  {9ddca584-d1cd-4edd-b26c-f99a6d4463a8}; ! Name of Object 1

