
OS:Version,
  {e73c581c-54d2-40ab-9759-84af9f3872cd}, ! Handle
  0.9.3;                                  ! Version Identifier

OS:SizingPeriod:DesignDay,
  {97439974-7599-446a-8256-fd8c6b368047}, ! Handle
  ANCHORAGE Ann Clg 2% Condns WB=>MDB,    ! Name
  17.5,                                   ! Maximum Dry-Bulb Temperature {C}
  6.6,                                    ! Daily Dry-Bulb Temperature Range {deltaC}
  14.1,                                   ! Humidity Indicating Conditions at Maximum Dry-Bulb {BasedOnField A3}
  100905,                                 ! Barometric Pressure {Pa}
  3.6,                                    ! Wind Speed {m/s}
  300,                                    ! Wind Direction {deg}
  0,                                      ! Sky Clearness
  0,                                      ! Rain Indicator
  0,                                      ! Snow Indicator
  21,                                     ! Day of Month
  7,                                      ! Month
  SummerDesignDay,                        ! Day Type
  0,                                      ! Daylight Saving Time Indicator
  Wetbulb,                                ! Humidity Indicating Type
  ,                                       ! Humidity Indicating Day Schedule Name
  DefaultMultipliers,                     ! Dry-Bulb Temperature Range Modifier Type
  ,                                       ! Dry-Bulb Temperature Range Modifier Schedule Name
  ASHRAETau,                              ! Solar Model Indicator
  ,                                       ! Beam Solar Day Schedule Name
  ,                                       ! Diffuse Solar Day Schedule Name
  0.387,                                  ! ASHRAE Taub {dimensionless}
  2.172;                                  ! ASHRAE Taud {dimensionless}

OS:ComponentData,
  {8eae3196-ff83-401e-8205-6331d42e3af3}, ! Handle
  Component Data 1,                       ! Name
  {382b7ce5-6e54-41be-b47a-8dc174cdff6f}, ! UUID
  {0c8e5ad9-3a23-4166-8e27-020690d777e9}, ! Version UUID
  1366304704,                             ! Creation Timestamp
  1366304704,                             ! Version Timestamp
  {97439974-7599-446a-8256-fd8c6b368047}; ! Name of Object 1

