
OS:Version,
  {60ef4b01-8541-47c8-bcdd-2894b4f84972}, ! Handle
  0.9.3;                                  ! Version Identifier

OS:SizingPeriod:DesignDay,
  {c88d5bb1-5323-4875-adea-a094a174a389}, ! Handle
  La Grande Muni Ap Ann Htg Wind 99.6% Condns WS=>MCDB, ! Name
  4.1,                                    ! Maximum Dry-Bulb Temperature {C}
  0,                                      ! Daily Dry-Bulb Temperature Range {deltaC}
  4.1,                                    ! Humidity Indicating Conditions at Maximum Dry-Bulb {BasedOnField A3}
  91777,                                  ! Barometric Pressure {Pa}
  15.8,                                   ! Wind Speed {m/s}
  320,                                    ! Wind Direction {deg}
  0,                                      ! Sky Clearness
  0,                                      ! Rain Indicator
  0,                                      ! Snow Indicator
  21,                                     ! Day of Month
  12,                                     ! Month
  WinterDesignDay,                        ! Day Type
  0,                                      ! Daylight Saving Time Indicator
  Wetbulb,                                ! Humidity Indicating Type
  ,                                       ! Humidity Indicating Day Schedule Name
  DefaultMultipliers,                     ! Dry-Bulb Temperature Range Modifier Type
  ,                                       ! Dry-Bulb Temperature Range Modifier Schedule Name
  ASHRAEClearSky;                         ! Solar Model Indicator

OS:ComponentData,
  {acdbdb25-7f25-49d9-ab4e-8df8c782b769}, ! Handle
  Component Data 1,                       ! Name
  {3e5514a9-85a2-47b4-8ca7-d064c07ff63a}, ! UUID
  {58406162-c7ab-4b1f-ab55-932b9a6e5ef8}, ! Version UUID
  1366310020,                             ! Creation Timestamp
  1366310020,                             ! Version Timestamp
  {c88d5bb1-5323-4875-adea-a094a174a389}; ! Name of Object 1

