
OS:Version,
  {8677c493-8767-4f98-b10b-a4c96f370292}, ! Handle
  0.9.3;                                  ! Version Identifier

OS:SizingPeriod:DesignDay,
  {b6bfe80f-3386-484c-a8f5-189909135d94}, ! Handle
  Joplin Municipal Ap Ann Clg 2% Condns Enth=>MDB, ! Name
  31,                                     ! Maximum Dry-Bulb Temperature {C}
  10.8,                                   ! Daily Dry-Bulb Temperature Range {deltaC}
  76500,                                  ! Humidity Indicating Conditions at Maximum Dry-Bulb {BasedOnField A3}
  97808,                                  ! Barometric Pressure {Pa}
  4.8,                                    ! Wind Speed {m/s}
  210,                                    ! Wind Direction {deg}
  0,                                      ! Sky Clearness
  0,                                      ! Rain Indicator
  0,                                      ! Snow Indicator
  21,                                     ! Day of Month
  7,                                      ! Month
  SummerDesignDay,                        ! Day Type
  0,                                      ! Daylight Saving Time Indicator
  Enthalpy,                               ! Humidity Indicating Type
  ,                                       ! Humidity Indicating Day Schedule Name
  DefaultMultipliers,                     ! Dry-Bulb Temperature Range Modifier Type
  ,                                       ! Dry-Bulb Temperature Range Modifier Schedule Name
  ASHRAETau,                              ! Solar Model Indicator
  ,                                       ! Beam Solar Day Schedule Name
  ,                                       ! Diffuse Solar Day Schedule Name
  0.446,                                  ! ASHRAE Taub {dimensionless}
  2.122;                                  ! ASHRAE Taud {dimensionless}

OS:ComponentData,
  {6ebf523e-a09d-4f1e-8199-dfc82583be8e}, ! Handle
  Component Data 1,                       ! Name
  {b2dae1e4-1036-4f10-845d-1a7bb2652c02}, ! UUID
  {2344f663-fb14-4841-a006-924b2bd51679}, ! Version UUID
  1366308510,                             ! Creation Timestamp
  1366308510,                             ! Version Timestamp
  {b6bfe80f-3386-484c-a8f5-189909135d94}; ! Name of Object 1

