
OS:Version,
  {2def2e13-873a-4b8f-b5d6-4a9f0e0a2e77}, ! Handle
  0.9.3;                                  ! Version Identifier

OS:SizingPeriod:DesignDay,
  {7ecdaa4d-e064-4647-abaa-e4390618f5df}, ! Handle
  Erie Ann Clg .4% Condns DP=>MDB,        ! Name
  26.9,                                   ! Maximum Dry-Bulb Temperature {C}
  8.3,                                    ! Daily Dry-Bulb Temperature Range {deltaC}
  22.7,                                   ! Humidity Indicating Conditions at Maximum Dry-Bulb {BasedOnField A3}
  98651,                                  ! Barometric Pressure {Pa}
  5,                                      ! Wind Speed {m/s}
  260,                                    ! Wind Direction {deg}
  0,                                      ! Sky Clearness
  0,                                      ! Rain Indicator
  0,                                      ! Snow Indicator
  21,                                     ! Day of Month
  7,                                      ! Month
  SummerDesignDay,                        ! Day Type
  0,                                      ! Daylight Saving Time Indicator
  Dewpoint,                               ! Humidity Indicating Type
  ,                                       ! Humidity Indicating Day Schedule Name
  DefaultMultipliers,                     ! Dry-Bulb Temperature Range Modifier Type
  ,                                       ! Dry-Bulb Temperature Range Modifier Schedule Name
  ASHRAETau,                              ! Solar Model Indicator
  ,                                       ! Beam Solar Day Schedule Name
  ,                                       ! Diffuse Solar Day Schedule Name
  0.455,                                  ! ASHRAE Taub {dimensionless}
  2.041;                                  ! ASHRAE Taud {dimensionless}

OS:ComponentData,
  {1e46f984-574f-4a6b-a4e1-f9f6912c0bf7}, ! Handle
  Component Data 1,                       ! Name
  {64913c18-41cf-4e6a-966c-4be12898266c}, ! UUID
  {77a03b01-123f-4459-b237-c07a0a0c910e}, ! Version UUID
  1366310170,                             ! Creation Timestamp
  1366310170,                             ! Version Timestamp
  {7ecdaa4d-e064-4647-abaa-e4390618f5df}; ! Name of Object 1

