
OS:Version,
  {ac3b0c79-9e45-4534-80c3-e87d5902b4e8}, ! Handle
  0.9.3;                                  ! Version Identifier

OS:SizingPeriod:DesignDay,
  {da1b2bcf-dc22-49f9-8eb7-c53c4a538e9e}, ! Handle
  Jackson Mckellar Sipes Regl A Ann Hum_n 99% Condns DP=>MCDB, ! Name
  -5.6,                                   ! Maximum Dry-Bulb Temperature {C}
  0,                                      ! Daily Dry-Bulb Temperature Range {deltaC}
  -12.8,                                  ! Humidity Indicating Conditions at Maximum Dry-Bulb {BasedOnField A3}
  99749,                                  ! Barometric Pressure {Pa}
  3.4,                                    ! Wind Speed {m/s}
  340,                                    ! Wind Direction {deg}
  0,                                      ! Sky Clearness
  0,                                      ! Rain Indicator
  0,                                      ! Snow Indicator
  21,                                     ! Day of Month
  1,                                      ! Month
  WinterDesignDay,                        ! Day Type
  0,                                      ! Daylight Saving Time Indicator
  Dewpoint,                               ! Humidity Indicating Type
  ,                                       ! Humidity Indicating Day Schedule Name
  DefaultMultipliers,                     ! Dry-Bulb Temperature Range Modifier Type
  ,                                       ! Dry-Bulb Temperature Range Modifier Schedule Name
  ASHRAEClearSky;                         ! Solar Model Indicator

OS:ComponentData,
  {9bc294fd-e376-4362-8300-e4e4c5f79538}, ! Handle
  Component Data 1,                       ! Name
  {83cc6dfd-1596-40aa-add7-8d609f164647}, ! UUID
  {6c77d8eb-0af2-4c0b-b529-7dfb88320b5e}, ! Version UUID
  1366310504,                             ! Creation Timestamp
  1366310504,                             ! Version Timestamp
  {da1b2bcf-dc22-49f9-8eb7-c53c4a538e9e}; ! Name of Object 1

