
OS:Version,
  {5bad0e09-9e1b-406a-b0d5-79eb5bd44b57}, ! Handle
  0.9.3;                                  ! Version Identifier

OS:SizingPeriod:DesignDay,
  {35cefd40-9343-459b-9bde-782cb00dca0d}, ! Handle
  Fort Campbell Aaf Ann Clg 2% Condns DP=>MDB, ! Name
  28.1,                                   ! Maximum Dry-Bulb Temperature {C}
  10.5,                                   ! Daily Dry-Bulb Temperature Range {deltaC}
  23.8,                                   ! Humidity Indicating Conditions at Maximum Dry-Bulb {BasedOnField A3}
  99264,                                  ! Barometric Pressure {Pa}
  3,                                      ! Wind Speed {m/s}
  210,                                    ! Wind Direction {deg}
  0,                                      ! Sky Clearness
  0,                                      ! Rain Indicator
  0,                                      ! Snow Indicator
  21,                                     ! Day of Month
  7,                                      ! Month
  SummerDesignDay,                        ! Day Type
  0,                                      ! Daylight Saving Time Indicator
  Dewpoint,                               ! Humidity Indicating Type
  ,                                       ! Humidity Indicating Day Schedule Name
  DefaultMultipliers,                     ! Dry-Bulb Temperature Range Modifier Type
  ,                                       ! Dry-Bulb Temperature Range Modifier Schedule Name
  ASHRAETau,                              ! Solar Model Indicator
  ,                                       ! Beam Solar Day Schedule Name
  ,                                       ! Diffuse Solar Day Schedule Name
  0.511,                                  ! ASHRAE Taub {dimensionless}
  1.883;                                  ! ASHRAE Taud {dimensionless}

OS:ComponentData,
  {e24920fa-3785-4767-9e5d-7dee5e0cfc7d}, ! Handle
  Component Data 1,                       ! Name
  {7b7d069c-b93d-4537-9335-29e02354fda6}, ! UUID
  {a1e5dbb1-a0ce-472d-9b46-e04572eef067}, ! Version UUID
  1366307630,                             ! Creation Timestamp
  1366307630,                             ! Version Timestamp
  {35cefd40-9343-459b-9bde-782cb00dca0d}; ! Name of Object 1

