
OS:Version,
  {ea81666b-9cb9-476d-a921-d426d1893361}, ! Handle
  0.9.3;                                  ! Version Identifier

OS:SizingPeriod:DesignDay,
  {c08e08cf-6aba-4eb8-92e8-0e11de438040}, ! Handle
  Jackson International Ap Ann Clg 2% Condns DB=>MWB, ! Name
  33.3,                                   ! Maximum Dry-Bulb Temperature {C}
  10.7,                                   ! Daily Dry-Bulb Temperature Range {deltaC}
  24.5,                                   ! Humidity Indicating Conditions at Maximum Dry-Bulb {BasedOnField A3}
  100201,                                 ! Barometric Pressure {Pa}
  3.2,                                    ! Wind Speed {m/s}
  350,                                    ! Wind Direction {deg}
  0,                                      ! Sky Clearness
  0,                                      ! Rain Indicator
  0,                                      ! Snow Indicator
  21,                                     ! Day of Month
  7,                                      ! Month
  SummerDesignDay,                        ! Day Type
  0,                                      ! Daylight Saving Time Indicator
  Wetbulb,                                ! Humidity Indicating Type
  ,                                       ! Humidity Indicating Day Schedule Name
  DefaultMultipliers,                     ! Dry-Bulb Temperature Range Modifier Type
  ,                                       ! Dry-Bulb Temperature Range Modifier Schedule Name
  ASHRAETau,                              ! Solar Model Indicator
  ,                                       ! Beam Solar Day Schedule Name
  ,                                       ! Diffuse Solar Day Schedule Name
  0.534,                                  ! ASHRAE Taub {dimensionless}
  1.869;                                  ! ASHRAE Taud {dimensionless}

OS:ComponentData,
  {25082505-84de-4b54-b6b0-5b779aca70b3}, ! Handle
  Component Data 1,                       ! Name
  {0f4d2e0d-4de0-4250-bc05-490de03a3acd}, ! UUID
  {4631ae2b-18d3-4207-9b46-6d85d557305a}, ! Version UUID
  1366308651,                             ! Creation Timestamp
  1366308651,                             ! Version Timestamp
  {c08e08cf-6aba-4eb8-92e8-0e11de438040}; ! Name of Object 1

