
OS:Version,
  {da46052f-65bf-4120-b06f-b245fc503cba}, ! Handle
  0.9.3;                                  ! Version Identifier

OS:SizingPeriod:DesignDay,
  {54a3f26e-4bfc-49d3-9e0f-e69437d06701}, ! Handle
  FARGO Ann Htg Wind 99.6% Condns WS=>MCDB, ! Name
  -12.6,                                  ! Maximum Dry-Bulb Temperature {C}
  0,                                      ! Daily Dry-Bulb Temperature Range {deltaC}
  -12.6,                                  ! Humidity Indicating Conditions at Maximum Dry-Bulb {BasedOnField A3}
  98076,                                  ! Barometric Pressure {Pa}
  15.8,                                   ! Wind Speed {m/s}
  200,                                    ! Wind Direction {deg}
  0,                                      ! Sky Clearness
  0,                                      ! Rain Indicator
  0,                                      ! Snow Indicator
  21,                                     ! Day of Month
  1,                                      ! Month
  WinterDesignDay,                        ! Day Type
  0,                                      ! Daylight Saving Time Indicator
  Wetbulb,                                ! Humidity Indicating Type
  ,                                       ! Humidity Indicating Day Schedule Name
  DefaultMultipliers,                     ! Dry-Bulb Temperature Range Modifier Type
  ,                                       ! Dry-Bulb Temperature Range Modifier Schedule Name
  ASHRAEClearSky;                         ! Solar Model Indicator

OS:ComponentData,
  {bda36250-6ea3-401f-a403-3345a7a09eb3}, ! Handle
  Component Data 1,                       ! Name
  {395428f7-d15b-473a-942a-378bccfb79e6}, ! UUID
  {deb80f4b-54c9-42fd-a5e3-819c12749758}, ! Version UUID
  1366309037,                             ! Creation Timestamp
  1366309037,                             ! Version Timestamp
  {54a3f26e-4bfc-49d3-9e0f-e69437d06701}; ! Name of Object 1

