
OS:Version,
  {95180004-8e8f-4c2d-b910-5630c7159050}, ! Handle
  0.9.3;                                  ! Version Identifier

OS:SizingPeriod:DesignDay,
  {7d0415ff-626f-432c-a345-0f571e686fde}, ! Handle
  Jacksonville  Awos Ann Clg 2% Condns DB=>MWB, ! Name
  32.2,                                   ! Maximum Dry-Bulb Temperature {C}
  10.6,                                   ! Daily Dry-Bulb Temperature Range {deltaC}
  23.9,                                   ! Humidity Indicating Conditions at Maximum Dry-Bulb {BasedOnField A3}
  100977,                                 ! Barometric Pressure {Pa}
  3.7,                                    ! Wind Speed {m/s}
  230,                                    ! Wind Direction {deg}
  0,                                      ! Sky Clearness
  0,                                      ! Rain Indicator
  0,                                      ! Snow Indicator
  21,                                     ! Day of Month
  7,                                      ! Month
  SummerDesignDay,                        ! Day Type
  0,                                      ! Daylight Saving Time Indicator
  Wetbulb,                                ! Humidity Indicating Type
  ,                                       ! Humidity Indicating Day Schedule Name
  DefaultMultipliers,                     ! Dry-Bulb Temperature Range Modifier Type
  ,                                       ! Dry-Bulb Temperature Range Modifier Schedule Name
  ASHRAETau,                              ! Solar Model Indicator
  ,                                       ! Beam Solar Day Schedule Name
  ,                                       ! Diffuse Solar Day Schedule Name
  0.594,                                  ! ASHRAE Taub {dimensionless}
  1.701;                                  ! ASHRAE Taud {dimensionless}

OS:ComponentData,
  {d73e8b3d-ab85-4037-bc0a-3358eabe7d1e}, ! Handle
  Component Data 1,                       ! Name
  {d3282289-0ddc-4fa5-a59d-cc01529372aa}, ! UUID
  {e4df48af-fd08-44a0-983d-eefba7ca0331}, ! Version UUID
  1366308945,                             ! Creation Timestamp
  1366308945,                             ! Version Timestamp
  {7d0415ff-626f-432c-a345-0f571e686fde}; ! Name of Object 1

