
OS:Version,
  {14009167-05c4-406d-ba10-8a40540c82fc}, ! Handle
  0.9.3;                                  ! Version Identifier

OS:SizingPeriod:DesignDay,
  {96e1a894-421f-49c5-986b-016549e44361}, ! Handle
  Fairmont Muni Awos Ann Htg 99% Condns DB, ! Name
  -21.3,                                  ! Maximum Dry-Bulb Temperature {C}
  0,                                      ! Daily Dry-Bulb Temperature Range {deltaC}
  -21.3,                                  ! Humidity Indicating Conditions at Maximum Dry-Bulb {BasedOnField A3}
  97144,                                  ! Barometric Pressure {Pa}
  5.3,                                    ! Wind Speed {m/s}
  330,                                    ! Wind Direction {deg}
  0,                                      ! Sky Clearness
  0,                                      ! Rain Indicator
  0,                                      ! Snow Indicator
  21,                                     ! Day of Month
  1,                                      ! Month
  WinterDesignDay,                        ! Day Type
  0,                                      ! Daylight Saving Time Indicator
  Wetbulb,                                ! Humidity Indicating Type
  ,                                       ! Humidity Indicating Day Schedule Name
  DefaultMultipliers,                     ! Dry-Bulb Temperature Range Modifier Type
  ,                                       ! Dry-Bulb Temperature Range Modifier Schedule Name
  ASHRAEClearSky;                         ! Solar Model Indicator

OS:ComponentData,
  {5ab128e3-62c5-4e93-ad83-3304b97609ef}, ! Handle
  Component Data 1,                       ! Name
  {a3fd92ab-4c9f-4ca3-9566-177aee2d550b}, ! UUID
  {0164d456-8dfd-43d8-886a-7fd7ce2ca681}, ! Version UUID
  1366308223,                             ! Creation Timestamp
  1366308223,                             ! Version Timestamp
  {96e1a894-421f-49c5-986b-016549e44361}; ! Name of Object 1

