
OS:Version,
  {519f50d7-6888-4fc6-b1c6-300df7a43056}, ! Handle
  0.9.3;                                  ! Version Identifier

OS:SizingPeriod:DesignDay,
  {ab26a417-0180-42c1-88b7-40deeb6514ed}, ! Handle
  Lawrence Muni Ann Clg .4% Condns DP=>MDB, ! Name
  26.5,                                   ! Maximum Dry-Bulb Temperature {C}
  10.2,                                   ! Daily Dry-Bulb Temperature Range {deltaC}
  22.8,                                   ! Humidity Indicating Conditions at Maximum Dry-Bulb {BasedOnField A3}
  100774,                                 ! Barometric Pressure {Pa}
  4.5,                                    ! Wind Speed {m/s}
  250,                                    ! Wind Direction {deg}
  0,                                      ! Sky Clearness
  0,                                      ! Rain Indicator
  0,                                      ! Snow Indicator
  21,                                     ! Day of Month
  7,                                      ! Month
  SummerDesignDay,                        ! Day Type
  0,                                      ! Daylight Saving Time Indicator
  Dewpoint,                               ! Humidity Indicating Type
  ,                                       ! Humidity Indicating Day Schedule Name
  DefaultMultipliers,                     ! Dry-Bulb Temperature Range Modifier Type
  ,                                       ! Dry-Bulb Temperature Range Modifier Schedule Name
  ASHRAETau,                              ! Solar Model Indicator
  ,                                       ! Beam Solar Day Schedule Name
  ,                                       ! Diffuse Solar Day Schedule Name
  0.475,                                  ! ASHRAE Taub {dimensionless}
  1.982;                                  ! ASHRAE Taud {dimensionless}

OS:ComponentData,
  {7cb97b99-37b0-44e6-8dfc-2ac4024f9904}, ! Handle
  Component Data 1,                       ! Name
  {2861efb3-6688-4282-aeb9-ee8e11806230}, ! UUID
  {1cad97f8-5851-455e-9c91-9788e5ed0479}, ! Version UUID
  1366307798,                             ! Creation Timestamp
  1366307798,                             ! Version Timestamp
  {ab26a417-0180-42c1-88b7-40deeb6514ed}; ! Name of Object 1

