
OS:Version,
  {db065354-e2c8-429f-9d8b-1acfcbb450c2}, ! Handle
  0.9.3;                                  ! Version Identifier

OS:SizingPeriod:DesignDay,
  {8e8b3554-d918-4cdf-b19e-9af566db9906}, ! Handle
  Chula Vista Brown Field Naas Ann Clg .4% Condns DP=>MDB, ! Name
  24.3,                                   ! Maximum Dry-Bulb Temperature {C}
  8.9,                                    ! Daily Dry-Bulb Temperature Range {deltaC}
  20,                                     ! Humidity Indicating Conditions at Maximum Dry-Bulb {BasedOnField A3}
  99429,                                  ! Barometric Pressure {Pa}
  4.1,                                    ! Wind Speed {m/s}
  280,                                    ! Wind Direction {deg}
  0,                                      ! Sky Clearness
  0,                                      ! Rain Indicator
  0,                                      ! Snow Indicator
  21,                                     ! Day of Month
  8,                                      ! Month
  SummerDesignDay,                        ! Day Type
  0,                                      ! Daylight Saving Time Indicator
  Dewpoint,                               ! Humidity Indicating Type
  ,                                       ! Humidity Indicating Day Schedule Name
  DefaultMultipliers,                     ! Dry-Bulb Temperature Range Modifier Type
  ,                                       ! Dry-Bulb Temperature Range Modifier Schedule Name
  ASHRAETau,                              ! Solar Model Indicator
  ,                                       ! Beam Solar Day Schedule Name
  ,                                       ! Diffuse Solar Day Schedule Name
  0.412,                                  ! ASHRAE Taub {dimensionless}
  2.276;                                  ! ASHRAE Taud {dimensionless}

OS:ComponentData,
  {d4ef092c-50cc-439b-ba7c-9cf2b3492acd}, ! Handle
  Component Data 1,                       ! Name
  {785815b8-9e13-443b-b7c4-daf74484c05d}, ! UUID
  {20454805-008e-4606-836d-c3466ca4385d}, ! Version UUID
  1366306414,                             ! Creation Timestamp
  1366306414,                             ! Version Timestamp
  {8e8b3554-d918-4cdf-b19e-9af566db9906}; ! Name of Object 1

