
OS:Version,
  {f57bfe3e-ee6c-4c83-8dba-55807c9ac754}, ! Handle
  0.9.3;                                  ! Version Identifier

OS:SizingPeriod:DesignDay,
  {83b6f2e2-fe41-4135-ba26-5a736e4cf4b7}, ! Handle
  Lewiston Ann Clg 2% Condns Enth=>MDB,   ! Name
  30.6,                                   ! Maximum Dry-Bulb Temperature {C}
  15,                                     ! Daily Dry-Bulb Temperature Range {deltaC}
  52400,                                  ! Humidity Indicating Conditions at Maximum Dry-Bulb {BasedOnField A3}
  96184,                                  ! Barometric Pressure {Pa}
  3,                                      ! Wind Speed {m/s}
  320,                                    ! Wind Direction {deg}
  0,                                      ! Sky Clearness
  0,                                      ! Rain Indicator
  0,                                      ! Snow Indicator
  21,                                     ! Day of Month
  7,                                      ! Month
  SummerDesignDay,                        ! Day Type
  0,                                      ! Daylight Saving Time Indicator
  Enthalpy,                               ! Humidity Indicating Type
  ,                                       ! Humidity Indicating Day Schedule Name
  DefaultMultipliers,                     ! Dry-Bulb Temperature Range Modifier Type
  ,                                       ! Dry-Bulb Temperature Range Modifier Schedule Name
  ASHRAETau,                              ! Solar Model Indicator
  ,                                       ! Beam Solar Day Schedule Name
  ,                                       ! Diffuse Solar Day Schedule Name
  0.393,                                  ! ASHRAE Taub {dimensionless}
  2.242;                                  ! ASHRAE Taud {dimensionless}

