
OS:Version,
  {06fe2857-5cfd-4889-b697-76da51460afc}, ! Handle
  0.9.3;                                  ! Version Identifier

OS:SizingPeriod:DesignDay,
  {2c102310-7268-4d86-b25e-7772c2d242de}, ! Handle
  Lewiston Ann Clg 2% Condns Enth=>MDB,   ! Name
  30.6,                                   ! Maximum Dry-Bulb Temperature {C}
  15,                                     ! Daily Dry-Bulb Temperature Range {deltaC}
  52400,                                  ! Humidity Indicating Conditions at Maximum Dry-Bulb {BasedOnField A3}
  96184,                                  ! Barometric Pressure {Pa}
  3,                                      ! Wind Speed {m/s}
  320,                                    ! Wind Direction {deg}
  0,                                      ! Sky Clearness
  0,                                      ! Rain Indicator
  0,                                      ! Snow Indicator
  21,                                     ! Day of Month
  7,                                      ! Month
  SummerDesignDay,                        ! Day Type
  0,                                      ! Daylight Saving Time Indicator
  Enthalpy,                               ! Humidity Indicating Type
  ,                                       ! Humidity Indicating Day Schedule Name
  DefaultMultipliers,                     ! Dry-Bulb Temperature Range Modifier Type
  ,                                       ! Dry-Bulb Temperature Range Modifier Schedule Name
  ASHRAETau,                              ! Solar Model Indicator
  ,                                       ! Beam Solar Day Schedule Name
  ,                                       ! Diffuse Solar Day Schedule Name
  0.393,                                  ! ASHRAE Taub {dimensionless}
  2.242;                                  ! ASHRAE Taud {dimensionless}

OS:ComponentData,
  {cd4f4742-3304-44c3-82d0-4cdc6e44d392}, ! Handle
  Component Data 1,                       ! Name
  {44f1306a-0f5c-484e-ac9f-e65ab3cefbe8}, ! UUID
  {1f3039e0-2540-4a2a-8e95-a40102cb7310}, ! Version UUID
  1366307289,                             ! Creation Timestamp
  1366307289,                             ! Version Timestamp
  {2c102310-7268-4d86-b25e-7772c2d242de}; ! Name of Object 1

