
OS:Version,
  {cb2e4a9c-4cf1-4218-a410-94e8ebd309b0}, ! Handle
  0.9.3;                                  ! Version Identifier

OS:SizingPeriod:DesignDay,
  {216c7cc2-69e3-4ce0-ad37-19e8b004383c}, ! Handle
  Abilene Dyess Afb Ann Clg .4% Condns DP=>MDB, ! Name
  27.4,                                   ! Maximum Dry-Bulb Temperature {C}
  12.4,                                   ! Daily Dry-Bulb Temperature Range {deltaC}
  23,                                     ! Humidity Indicating Conditions at Maximum Dry-Bulb {BasedOnField A3}
  94947,                                  ! Barometric Pressure {Pa}
  4.5,                                    ! Wind Speed {m/s}
  170,                                    ! Wind Direction {deg}
  0,                                      ! Sky Clearness
  0,                                      ! Rain Indicator
  0,                                      ! Snow Indicator
  21,                                     ! Day of Month
  7,                                      ! Month
  SummerDesignDay,                        ! Day Type
  0,                                      ! Daylight Saving Time Indicator
  Dewpoint,                               ! Humidity Indicating Type
  ,                                       ! Humidity Indicating Day Schedule Name
  DefaultMultipliers,                     ! Dry-Bulb Temperature Range Modifier Type
  ,                                       ! Dry-Bulb Temperature Range Modifier Schedule Name
  ASHRAETau,                              ! Solar Model Indicator
  ,                                       ! Beam Solar Day Schedule Name
  ,                                       ! Diffuse Solar Day Schedule Name
  0.427,                                  ! ASHRAE Taub {dimensionless}
  2.168;                                  ! ASHRAE Taud {dimensionless}

OS:ComponentData,
  {4c884ba2-95e6-4600-9b6f-9b1d2f477700}, ! Handle
  Component Data 1,                       ! Name
  {f4c91aee-7aaf-4731-aaa2-058c6c38984a}, ! UUID
  {a07e83e1-0767-4a00-a2ae-e314e3d0c0c0}, ! Version UUID
  1366310547,                             ! Creation Timestamp
  1366310547,                             ! Version Timestamp
  {216c7cc2-69e3-4ce0-ad37-19e8b004383c}; ! Name of Object 1

