
OS:Version,
  {8a397fde-2fb3-43d7-a677-76c68c1f1353}, ! Handle
  0.9.3;                                  ! Version Identifier

OS:SizingPeriod:DesignDay,
  {62a17e15-37be-48d7-87ed-f6d571f21b86}, ! Handle
  Belleville Scott Afb Ann Hum_n 99.6% Condns DP=>MCDB, ! Name
  -14.1,                                  ! Maximum Dry-Bulb Temperature {C}
  0,                                      ! Daily Dry-Bulb Temperature Range {deltaC}
  -21,                                    ! Humidity Indicating Conditions at Maximum Dry-Bulb {BasedOnField A3}
  99714,                                  ! Barometric Pressure {Pa}
  3.7,                                    ! Wind Speed {m/s}
  320,                                    ! Wind Direction {deg}
  0,                                      ! Sky Clearness
  0,                                      ! Rain Indicator
  0,                                      ! Snow Indicator
  21,                                     ! Day of Month
  1,                                      ! Month
  WinterDesignDay,                        ! Day Type
  0,                                      ! Daylight Saving Time Indicator
  Dewpoint,                               ! Humidity Indicating Type
  ,                                       ! Humidity Indicating Day Schedule Name
  DefaultMultipliers,                     ! Dry-Bulb Temperature Range Modifier Type
  ,                                       ! Dry-Bulb Temperature Range Modifier Schedule Name
  ASHRAEClearSky;                         ! Solar Model Indicator

OS:ComponentData,
  {39eaa1cd-5a36-4409-ad41-6f59d768cb56}, ! Handle
  Component Data 1,                       ! Name
  {c10783a4-8d09-4c61-93bf-08e6937a3eb0}, ! UUID
  {0b66e424-3ab3-459c-b450-1996e4615006}, ! Version UUID
  1366307322,                             ! Creation Timestamp
  1366307322,                             ! Version Timestamp
  {62a17e15-37be-48d7-87ed-f6d571f21b86}; ! Name of Object 1

