
OS:Version,
  {d57157e4-7f1d-4fbd-93fc-f7ca7ea77789}, ! Handle
  0.9.3;                                  ! Version Identifier

OS:SizingPeriod:DesignDay,
  {0583317e-cf87-46cf-896d-380da5b9f2f8}, ! Handle
  HOUGHTON Ann Hum_n 99% Condns DP=>MCDB, ! Name
  -17.8,                                  ! Maximum Dry-Bulb Temperature {C}
  0,                                      ! Daily Dry-Bulb Temperature Range {deltaC}
  -21.9,                                  ! Humidity Indicating Conditions at Maximum Dry-Bulb {BasedOnField A3}
  97435,                                  ! Barometric Pressure {Pa}
  4.3,                                    ! Wind Speed {m/s}
  310,                                    ! Wind Direction {deg}
  0,                                      ! Sky Clearness
  0,                                      ! Rain Indicator
  0,                                      ! Snow Indicator
  21,                                     ! Day of Month
  1,                                      ! Month
  WinterDesignDay,                        ! Day Type
  0,                                      ! Daylight Saving Time Indicator
  Dewpoint,                               ! Humidity Indicating Type
  ,                                       ! Humidity Indicating Day Schedule Name
  DefaultMultipliers,                     ! Dry-Bulb Temperature Range Modifier Type
  ,                                       ! Dry-Bulb Temperature Range Modifier Schedule Name
  ASHRAEClearSky;                         ! Solar Model Indicator

OS:ComponentData,
  {9375fde8-3592-4f9b-b195-457c9a0f474f}, ! Handle
  Component Data 1,                       ! Name
  {060c2cd6-727d-4c38-9e77-2be69b23d30d}, ! UUID
  {e7da5966-9a4b-4c82-b2d2-325549a1daed}, ! Version UUID
  1366308029,                             ! Creation Timestamp
  1366308029,                             ! Version Timestamp
  {0583317e-cf87-46cf-896d-380da5b9f2f8}; ! Name of Object 1

