
OS:Version,
  {beb7078f-bcca-4945-b1e3-6f109e8aeaa2}, ! Handle
  0.9.3;                                  ! Version Identifier

OS:SizingPeriod:DesignDay,
  {26ff3b5c-1301-490e-b330-c2dbd95ad117}, ! Handle
  Hartford Bradley Intl Ap Ann Hum_n 99.6% Condns DP=>MCDB, ! Name
  -14,                                    ! Maximum Dry-Bulb Temperature {C}
  0,                                      ! Daily Dry-Bulb Temperature Range {deltaC}
  -24.2,                                  ! Humidity Indicating Conditions at Maximum Dry-Bulb {BasedOnField A3}
  100738,                                 ! Barometric Pressure {Pa}
  3.3,                                    ! Wind Speed {m/s}
  330,                                    ! Wind Direction {deg}
  0,                                      ! Sky Clearness
  0,                                      ! Rain Indicator
  0,                                      ! Snow Indicator
  21,                                     ! Day of Month
  1,                                      ! Month
  WinterDesignDay,                        ! Day Type
  0,                                      ! Daylight Saving Time Indicator
  Dewpoint,                               ! Humidity Indicating Type
  ,                                       ! Humidity Indicating Day Schedule Name
  DefaultMultipliers,                     ! Dry-Bulb Temperature Range Modifier Type
  ,                                       ! Dry-Bulb Temperature Range Modifier Schedule Name
  ASHRAEClearSky;                         ! Solar Model Indicator

OS:ComponentData,
  {115b2d01-6103-4190-8f19-f971ea29e284}, ! Handle
  Component Data 1,                       ! Name
  {502b31bc-8da7-48fb-a56f-bdd0c39c94d2}, ! UUID
  {9b43ef28-19e0-471b-994f-efa00886d25b}, ! Version UUID
  1366306757,                             ! Creation Timestamp
  1366306757,                             ! Version Timestamp
  {26ff3b5c-1301-490e-b330-c2dbd95ad117}; ! Name of Object 1

