
OS:Version,
  {53b0f287-6acc-4560-a74f-b5f5518d8ab8}, ! Handle
  0.9.3;                                  ! Version Identifier

OS:SizingPeriod:DesignDay,
  {c0320210-5efc-4336-a27c-6fc3e6190dda}, ! Handle
  Evansville Regional Ap Ann Clg 1% Condns DB=>MWB, ! Name
  33.1,                                   ! Maximum Dry-Bulb Temperature {C}
  10.6,                                   ! Daily Dry-Bulb Temperature Range {deltaC}
  24.3,                                   ! Humidity Indicating Conditions at Maximum Dry-Bulb {BasedOnField A3}
  99939,                                  ! Barometric Pressure {Pa}
  3.7,                                    ! Wind Speed {m/s}
  240,                                    ! Wind Direction {deg}
  0,                                      ! Sky Clearness
  0,                                      ! Rain Indicator
  0,                                      ! Snow Indicator
  21,                                     ! Day of Month
  7,                                      ! Month
  SummerDesignDay,                        ! Day Type
  0,                                      ! Daylight Saving Time Indicator
  Wetbulb,                                ! Humidity Indicating Type
  ,                                       ! Humidity Indicating Day Schedule Name
  DefaultMultipliers,                     ! Dry-Bulb Temperature Range Modifier Type
  ,                                       ! Dry-Bulb Temperature Range Modifier Schedule Name
  ASHRAETau,                              ! Solar Model Indicator
  ,                                       ! Beam Solar Day Schedule Name
  ,                                       ! Diffuse Solar Day Schedule Name
  0.508,                                  ! ASHRAE Taub {dimensionless}
  1.881;                                  ! ASHRAE Taud {dimensionless}

OS:ComponentData,
  {154fdddb-b5a5-42c1-901c-9a178227d177}, ! Handle
  Component Data 1,                       ! Name
  {7e08b3a6-1857-4f71-bc4d-38c029129481}, ! UUID
  {aaa7f480-3368-4d6f-a629-8e9c82e4c1fc}, ! Version UUID
  1366307433,                             ! Creation Timestamp
  1366307433,                             ! Version Timestamp
  {c0320210-5efc-4336-a27c-6fc3e6190dda}; ! Name of Object 1

