
OS:Version,
  {29c99fe5-d8a2-44a9-93d6-58e0e558a77a}, ! Handle
  0.9.3;                                  ! Version Identifier

OS:SizingPeriod:DesignDay,
  {c1b78c2b-4259-4ff9-ab62-6fa48808bdb3}, ! Handle
  AUGUSTA Ann Clg 1% Condns WB=>MDB,      ! Name
  31.9,                                   ! Maximum Dry-Bulb Temperature {C}
  11.7,                                   ! Daily Dry-Bulb Temperature Range {deltaC}
  25.7,                                   ! Humidity Indicating Conditions at Maximum Dry-Bulb {BasedOnField A3}
  100786,                                 ! Barometric Pressure {Pa}
  3.8,                                    ! Wind Speed {m/s}
  240,                                    ! Wind Direction {deg}
  0,                                      ! Sky Clearness
  0,                                      ! Rain Indicator
  0,                                      ! Snow Indicator
  21,                                     ! Day of Month
  7,                                      ! Month
  SummerDesignDay,                        ! Day Type
  0,                                      ! Daylight Saving Time Indicator
  Wetbulb,                                ! Humidity Indicating Type
  ,                                       ! Humidity Indicating Day Schedule Name
  DefaultMultipliers,                     ! Dry-Bulb Temperature Range Modifier Type
  ,                                       ! Dry-Bulb Temperature Range Modifier Schedule Name
  ASHRAETau,                              ! Solar Model Indicator
  ,                                       ! Beam Solar Day Schedule Name
  ,                                       ! Diffuse Solar Day Schedule Name
  0.559,                                  ! ASHRAE Taub {dimensionless}
  1.788;                                  ! ASHRAE Taud {dimensionless}

OS:ComponentData,
  {833734d9-1aa4-40b8-8712-cfcd5c3fd3b5}, ! Handle
  Component Data 1,                       ! Name
  {81fb03c4-6c21-4904-a1af-1e7c3c4c8d93}, ! UUID
  {b24becf7-612e-47fc-827c-670a62b2daaf}, ! Version UUID
  1366306993,                             ! Creation Timestamp
  1366306993,                             ! Version Timestamp
  {c1b78c2b-4259-4ff9-ab62-6fa48808bdb3}; ! Name of Object 1

