
OS:Version,
  {8f84e6f8-f6d4-4271-9488-1363223b6cc9}, ! Handle
  0.9.3;                                  ! Version Identifier

OS:SizingPeriod:DesignDay,
  {be8f0738-6749-4a3e-9a6e-fa57f3af9f33}, ! Handle
  Fosston Awos Ann Clg 1% Condns DP=>MDB, ! Name
  25.3,                                   ! Maximum Dry-Bulb Temperature {C}
  10.6,                                   ! Daily Dry-Bulb Temperature Range {deltaC}
  20.3,                                   ! Humidity Indicating Conditions at Maximum Dry-Bulb {BasedOnField A3}
  96750,                                  ! Barometric Pressure {Pa}
  5.4,                                    ! Wind Speed {m/s}
  160,                                    ! Wind Direction {deg}
  0,                                      ! Sky Clearness
  0,                                      ! Rain Indicator
  0,                                      ! Snow Indicator
  21,                                     ! Day of Month
  7,                                      ! Month
  SummerDesignDay,                        ! Day Type
  0,                                      ! Daylight Saving Time Indicator
  Dewpoint,                               ! Humidity Indicating Type
  ,                                       ! Humidity Indicating Day Schedule Name
  DefaultMultipliers,                     ! Dry-Bulb Temperature Range Modifier Type
  ,                                       ! Dry-Bulb Temperature Range Modifier Schedule Name
  ASHRAETau,                              ! Solar Model Indicator
  ,                                       ! Beam Solar Day Schedule Name
  ,                                       ! Diffuse Solar Day Schedule Name
  0.389,                                  ! ASHRAE Taub {dimensionless}
  2.278;                                  ! ASHRAE Taud {dimensionless}

OS:ComponentData,
  {ed7784cf-6765-40f5-b9c4-89694a3e37e0}, ! Handle
  Component Data 1,                       ! Name
  {4270c2f6-9a05-4a32-8cd7-6e838cf85758}, ! UUID
  {81f4a9d1-1e19-403e-8918-27a6651d9522}, ! Version UUID
  1366308239,                             ! Creation Timestamp
  1366308239,                             ! Version Timestamp
  {be8f0738-6749-4a3e-9a6e-fa57f3af9f33}; ! Name of Object 1

