
OS:Version,
  {e650dbca-1c39-4699-b6d1-800db43641c5}, ! Handle
  0.9.3;                                  ! Version Identifier

OS:SizingPeriod:DesignDay,
  {779cd276-2d71-4f9a-ae01-b67e38eaad67}, ! Handle
  BIRMINGHAM Ann Clg 2% Condns DP=>MDB,   ! Name
  27.2,                                   ! Maximum Dry-Bulb Temperature {C}
  10.3,                                   ! Daily Dry-Bulb Temperature Range {deltaC}
  23.3,                                   ! Humidity Indicating Conditions at Maximum Dry-Bulb {BasedOnField A3}
  99040,                                  ! Barometric Pressure {Pa}
  3.5,                                    ! Wind Speed {m/s}
  330,                                    ! Wind Direction {deg}
  0,                                      ! Sky Clearness
  0,                                      ! Rain Indicator
  0,                                      ! Snow Indicator
  21,                                     ! Day of Month
  7,                                      ! Month
  SummerDesignDay,                        ! Day Type
  0,                                      ! Daylight Saving Time Indicator
  Dewpoint,                               ! Humidity Indicating Type
  ,                                       ! Humidity Indicating Day Schedule Name
  DefaultMultipliers,                     ! Dry-Bulb Temperature Range Modifier Type
  ,                                       ! Dry-Bulb Temperature Range Modifier Schedule Name
  ASHRAETau,                              ! Solar Model Indicator
  ,                                       ! Beam Solar Day Schedule Name
  ,                                       ! Diffuse Solar Day Schedule Name
  0.583,                                  ! ASHRAE Taub {dimensionless}
  1.723;                                  ! ASHRAE Taud {dimensionless}

OS:ComponentData,
  {0883f522-dc14-4618-a52c-1bfe38addaaa}, ! Handle
  Component Data 1,                       ! Name
  {ddb37cf3-4b5d-4c02-821e-a9be797fb340}, ! UUID
  {ce9fb642-28ab-423d-b95a-3b6998adc533}, ! Version UUID
  1366305641,                             ! Creation Timestamp
  1366305641,                             ! Version Timestamp
  {779cd276-2d71-4f9a-ae01-b67e38eaad67}; ! Name of Object 1

