
OS:Version,
  {4e0162c3-70c5-47ea-b114-9936c623dafa}, ! Handle
  0.9.3;                                  ! Version Identifier

OS:SizingPeriod:DesignDay,
  {d9017a6e-cda4-4baf-8af7-1a67c4e7a60a}, ! Handle
  Austin Mueller Municipal Ap Ann Clg .4% Condns DB=>MWB, ! Name
  37.6,                                   ! Maximum Dry-Bulb Temperature {C}
  12.5,                                   ! Daily Dry-Bulb Temperature Range {deltaC}
  23.9,                                   ! Humidity Indicating Conditions at Maximum Dry-Bulb {BasedOnField A3}
  98792,                                  ! Barometric Pressure {Pa}
  3.7,                                    ! Wind Speed {m/s}
  190,                                    ! Wind Direction {deg}
  0,                                      ! Sky Clearness
  0,                                      ! Rain Indicator
  0,                                      ! Snow Indicator
  21,                                     ! Day of Month
  8,                                      ! Month
  SummerDesignDay,                        ! Day Type
  0,                                      ! Daylight Saving Time Indicator
  Wetbulb,                                ! Humidity Indicating Type
  ,                                       ! Humidity Indicating Day Schedule Name
  DefaultMultipliers,                     ! Dry-Bulb Temperature Range Modifier Type
  ,                                       ! Dry-Bulb Temperature Range Modifier Schedule Name
  ASHRAETau,                              ! Solar Model Indicator
  ,                                       ! Beam Solar Day Schedule Name
  ,                                       ! Diffuse Solar Day Schedule Name
  0.457,                                  ! ASHRAE Taub {dimensionless}
  2.114;                                  ! ASHRAE Taud {dimensionless}

OS:ComponentData,
  {147a3211-1978-47e1-8f85-fe7e88de3ac8}, ! Handle
  Component Data 1,                       ! Name
  {d67c0c16-9a16-443a-bf59-aaf3717dd2a4}, ! UUID
  {49508f39-b1d4-41cc-ba23-d5aff87c8bb8}, ! Version UUID
  1366310586,                             ! Creation Timestamp
  1366310586,                             ! Version Timestamp
  {d9017a6e-cda4-4baf-8af7-1a67c4e7a60a}; ! Name of Object 1

