
OS:Version,
  {004c8bb4-4509-40ab-9680-6aa8836878c4}, ! Handle
  0.9.3;                                  ! Version Identifier

OS:SizingPeriod:DesignDay,
  {654988fd-9d94-4337-bffd-7e3a30390a7e}, ! Handle
  Bethel Ann Htg 99% Condns DB,           ! Name
  -30.1,                                  ! Maximum Dry-Bulb Temperature {C}
  0,                                      ! Daily Dry-Bulb Temperature Range {deltaC}
  -30.1,                                  ! Humidity Indicating Conditions at Maximum Dry-Bulb {BasedOnField A3}
  100774,                                 ! Barometric Pressure {Pa}
  4.1,                                    ! Wind Speed {m/s}
  20,                                     ! Wind Direction {deg}
  0,                                      ! Sky Clearness
  0,                                      ! Rain Indicator
  0,                                      ! Snow Indicator
  21,                                     ! Day of Month
  1,                                      ! Month
  WinterDesignDay,                        ! Day Type
  0,                                      ! Daylight Saving Time Indicator
  Wetbulb,                                ! Humidity Indicating Type
  ,                                       ! Humidity Indicating Day Schedule Name
  DefaultMultipliers,                     ! Dry-Bulb Temperature Range Modifier Type
  ,                                       ! Dry-Bulb Temperature Range Modifier Schedule Name
  ASHRAEClearSky;                         ! Solar Model Indicator

OS:ComponentData,
  {e479a49c-f05a-40b3-9c20-d542876f1500}, ! Handle
  Component Data 1,                       ! Name
  {d5345b44-6f0e-4fb0-a06f-a4674904f6cf}, ! UUID
  {b94009df-172b-4790-8d41-2dfee069feee}, ! Version UUID
  1366304750,                             ! Creation Timestamp
  1366304750,                             ! Version Timestamp
  {654988fd-9d94-4337-bffd-7e3a30390a7e}; ! Name of Object 1

