
OS:Version,
  {76df0a1b-0ae2-4c6d-942c-99d0e71237c3}, ! Handle
  0.9.3;                                  ! Version Identifier

OS:SizingPeriod:DesignDay,
  {03b9c064-c3c4-488d-8b4c-6d031692fbdd}, ! Handle
  Abilene Dyess Afb Ann Clg 2% Condns Enth=>MDB, ! Name
  31.7,                                   ! Maximum Dry-Bulb Temperature {C}
  12.4,                                   ! Daily Dry-Bulb Temperature Range {deltaC}
  73800,                                  ! Humidity Indicating Conditions at Maximum Dry-Bulb {BasedOnField A3}
  94947,                                  ! Barometric Pressure {Pa}
  4.5,                                    ! Wind Speed {m/s}
  170,                                    ! Wind Direction {deg}
  0,                                      ! Sky Clearness
  0,                                      ! Rain Indicator
  0,                                      ! Snow Indicator
  21,                                     ! Day of Month
  7,                                      ! Month
  SummerDesignDay,                        ! Day Type
  0,                                      ! Daylight Saving Time Indicator
  Enthalpy,                               ! Humidity Indicating Type
  ,                                       ! Humidity Indicating Day Schedule Name
  DefaultMultipliers,                     ! Dry-Bulb Temperature Range Modifier Type
  ,                                       ! Dry-Bulb Temperature Range Modifier Schedule Name
  ASHRAETau,                              ! Solar Model Indicator
  ,                                       ! Beam Solar Day Schedule Name
  ,                                       ! Diffuse Solar Day Schedule Name
  0.427,                                  ! ASHRAE Taub {dimensionless}
  2.168;                                  ! ASHRAE Taud {dimensionless}

OS:ComponentData,
  {1bd87a76-e75a-4a97-aaec-1a960917da11}, ! Handle
  Component Data 1,                       ! Name
  {04db1d93-8254-46ab-ae81-bfdc3ebc55a9}, ! UUID
  {b6ab76da-68c5-428c-8dfc-f17bbfbcba2d}, ! Version UUID
  1366310548,                             ! Creation Timestamp
  1366310548,                             ! Version Timestamp
  {03b9c064-c3c4-488d-8b4c-6d031692fbdd}; ! Name of Object 1

