
OS:Version,
  {e5cc361d-7094-41b3-8e1b-0baa81848f94}, ! Handle
  0.9.3;                                  ! Version Identifier

OS:SizingPeriod:DesignDay,
  {1633657e-1e52-4b2b-88d6-c4ddc1de18fd}, ! Handle
  Grand Island Ann Clg 1% Condns Enth=>MDB, ! Name
  31,                                     ! Maximum Dry-Bulb Temperature {C}
  12.2,                                   ! Daily Dry-Bulb Temperature Range {deltaC}
  76000,                                  ! Humidity Indicating Conditions at Maximum Dry-Bulb {BasedOnField A3}
  94708,                                  ! Barometric Pressure {Pa}
  6.5,                                    ! Wind Speed {m/s}
  180,                                    ! Wind Direction {deg}
  0,                                      ! Sky Clearness
  0,                                      ! Rain Indicator
  0,                                      ! Snow Indicator
  21,                                     ! Day of Month
  7,                                      ! Month
  SummerDesignDay,                        ! Day Type
  0,                                      ! Daylight Saving Time Indicator
  Enthalpy,                               ! Humidity Indicating Type
  ,                                       ! Humidity Indicating Day Schedule Name
  DefaultMultipliers,                     ! Dry-Bulb Temperature Range Modifier Type
  ,                                       ! Dry-Bulb Temperature Range Modifier Schedule Name
  ASHRAETau,                              ! Solar Model Indicator
  ,                                       ! Beam Solar Day Schedule Name
  ,                                       ! Diffuse Solar Day Schedule Name
  0.405,                                  ! ASHRAE Taub {dimensionless}
  2.23;                                   ! ASHRAE Taud {dimensionless}

OS:ComponentData,
  {fbbc08e4-2940-4b27-b79c-70c2c199052e}, ! Handle
  Component Data 1,                       ! Name
  {9a104d7f-3f57-4e6a-ade9-4ef859a101b7}, ! UUID
  {f8aabd58-06ad-4d7d-a7e0-fc1cb5e9824d}, ! Version UUID
  1366309109,                             ! Creation Timestamp
  1366309109,                             ! Version Timestamp
  {1633657e-1e52-4b2b-88d6-c4ddc1de18fd}; ! Name of Object 1

