
OS:Version,
  {d2bc2183-78e6-41bf-b7fc-dd70c77be6a7}, ! Handle
  0.9.3;                                  ! Version Identifier

OS:SizingPeriod:DesignDay,
  {4e6a9e3e-e5d6-4f2f-9389-e1f03c60930e}, ! Handle
  Lawrence Muni Ann Htg Wind 99.6% Condns WS=>MCDB, ! Name
  -5.2,                                   ! Maximum Dry-Bulb Temperature {C}
  0,                                      ! Daily Dry-Bulb Temperature Range {deltaC}
  -5.2,                                   ! Humidity Indicating Conditions at Maximum Dry-Bulb {BasedOnField A3}
  100774,                                 ! Barometric Pressure {Pa}
  10.4,                                   ! Wind Speed {m/s}
  300,                                    ! Wind Direction {deg}
  0,                                      ! Sky Clearness
  0,                                      ! Rain Indicator
  0,                                      ! Snow Indicator
  21,                                     ! Day of Month
  1,                                      ! Month
  WinterDesignDay,                        ! Day Type
  0,                                      ! Daylight Saving Time Indicator
  Wetbulb,                                ! Humidity Indicating Type
  ,                                       ! Humidity Indicating Day Schedule Name
  DefaultMultipliers,                     ! Dry-Bulb Temperature Range Modifier Type
  ,                                       ! Dry-Bulb Temperature Range Modifier Schedule Name
  ASHRAEClearSky;                         ! Solar Model Indicator

OS:ComponentData,
  {499e413c-0c0a-40c3-8993-a8c7fc5df0df}, ! Handle
  Component Data 1,                       ! Name
  {27e217f3-e6ea-4ec8-9406-889583edcccb}, ! UUID
  {631115bf-8e74-4e24-9835-3d85d6a70342}, ! Version UUID
  1366307797,                             ! Creation Timestamp
  1366307797,                             ! Version Timestamp
  {4e6a9e3e-e5d6-4f2f-9389-e1f03c60930e}; ! Name of Object 1

