
OS:Version,
  {02b333ee-202e-4855-a5bb-4c0c217a711e}, ! Handle
  0.9.3;                                  ! Version Identifier

OS:SizingPeriod:DesignDay,
  {a12f90cd-97dd-443a-9ee3-e5a4bda7fe3d}, ! Handle
  DAYTON Ann Clg 2% Condns DP=>MDB,       ! Name
  26.5,                                   ! Maximum Dry-Bulb Temperature {C}
  11,                                     ! Daily Dry-Bulb Temperature Range {deltaC}
  22.2,                                   ! Humidity Indicating Conditions at Maximum Dry-Bulb {BasedOnField A3}
  97703,                                  ! Barometric Pressure {Pa}
  3.9,                                    ! Wind Speed {m/s}
  240,                                    ! Wind Direction {deg}
  0,                                      ! Sky Clearness
  0,                                      ! Rain Indicator
  0,                                      ! Snow Indicator
  21,                                     ! Day of Month
  7,                                      ! Month
  SummerDesignDay,                        ! Day Type
  0,                                      ! Daylight Saving Time Indicator
  Dewpoint,                               ! Humidity Indicating Type
  ,                                       ! Humidity Indicating Day Schedule Name
  DefaultMultipliers,                     ! Dry-Bulb Temperature Range Modifier Type
  ,                                       ! Dry-Bulb Temperature Range Modifier Schedule Name
  ASHRAETau,                              ! Solar Model Indicator
  ,                                       ! Beam Solar Day Schedule Name
  ,                                       ! Diffuse Solar Day Schedule Name
  0.484,                                  ! ASHRAE Taub {dimensionless}
  1.94;                                   ! ASHRAE Taud {dimensionless}

