
OS:Version,
  {638f0e81-05bb-40dc-87f7-bad77afc778e}, ! Handle
  0.9.3;                                  ! Version Identifier

OS:SizingPeriod:DesignDay,
  {8d4ea35f-30cd-4a87-b84f-f1ff57ca86c0}, ! Handle
  Grand Rapids Ann Clg .4% Condns DP=>MDB, ! Name
  27.6,                                   ! Maximum Dry-Bulb Temperature {C}
  11.1,                                   ! Daily Dry-Bulb Temperature Range {deltaC}
  23.1,                                   ! Humidity Indicating Conditions at Maximum Dry-Bulb {BasedOnField A3}
  98416,                                  ! Barometric Pressure {Pa}
  5.8,                                    ! Wind Speed {m/s}
  240,                                    ! Wind Direction {deg}
  0,                                      ! Sky Clearness
  0,                                      ! Rain Indicator
  0,                                      ! Snow Indicator
  21,                                     ! Day of Month
  7,                                      ! Month
  SummerDesignDay,                        ! Day Type
  0,                                      ! Daylight Saving Time Indicator
  Dewpoint,                               ! Humidity Indicating Type
  ,                                       ! Humidity Indicating Day Schedule Name
  DefaultMultipliers,                     ! Dry-Bulb Temperature Range Modifier Type
  ,                                       ! Dry-Bulb Temperature Range Modifier Schedule Name
  ASHRAETau,                              ! Solar Model Indicator
  ,                                       ! Beam Solar Day Schedule Name
  ,                                       ! Diffuse Solar Day Schedule Name
  0.424,                                  ! ASHRAE Taub {dimensionless}
  2.173;                                  ! ASHRAE Taud {dimensionless}

OS:ComponentData,
  {5b36a044-a41b-4625-90cf-1ba46a42dd38}, ! Handle
  Component Data 1,                       ! Name
  {f70e84f1-ead4-4b98-b015-1812df508e4c}, ! UUID
  {4bf6f030-04dc-4c1f-9455-c106b1538c22}, ! Version UUID
  1366308011,                             ! Creation Timestamp
  1366308011,                             ! Version Timestamp
  {8d4ea35f-30cd-4a87-b84f-f1ff57ca86c0}; ! Name of Object 1

