
OS:Version,
  {3a05d284-fceb-4a39-adfe-4646e2a1cc2f}, ! Handle
  0.9.3;                                  ! Version Identifier

OS:SizingPeriod:DesignDay,
  {3d459865-47b6-4ae2-b05a-d6e20bd45cb8}, ! Handle
  Holloman Afb Ann Clg 2% Condns Enth=>MDB, ! Name
  28.8,                                   ! Maximum Dry-Bulb Temperature {C}
  14.5,                                   ! Daily Dry-Bulb Temperature Range {deltaC}
  60100,                                  ! Humidity Indicating Conditions at Maximum Dry-Bulb {BasedOnField A3}
  87204,                                  ! Barometric Pressure {Pa}
  4.2,                                    ! Wind Speed {m/s}
  250,                                    ! Wind Direction {deg}
  0,                                      ! Sky Clearness
  0,                                      ! Rain Indicator
  0,                                      ! Snow Indicator
  21,                                     ! Day of Month
  7,                                      ! Month
  SummerDesignDay,                        ! Day Type
  0,                                      ! Daylight Saving Time Indicator
  Enthalpy,                               ! Humidity Indicating Type
  ,                                       ! Humidity Indicating Day Schedule Name
  DefaultMultipliers,                     ! Dry-Bulb Temperature Range Modifier Type
  ,                                       ! Dry-Bulb Temperature Range Modifier Schedule Name
  ASHRAETau,                              ! Solar Model Indicator
  ,                                       ! Beam Solar Day Schedule Name
  ,                                       ! Diffuse Solar Day Schedule Name
  0.514,                                  ! ASHRAE Taub {dimensionless}
  1.765;                                  ! ASHRAE Taud {dimensionless}

