
OS:Version,
  {723b5db9-9c19-47db-a894-a362922f2ec3}, ! Handle
  0.9.3;                                  ! Version Identifier

OS:SizingPeriod:DesignDay,
  {05688c15-1431-49be-976b-61660f2003a8}, ! Handle
  Jackson International Ap Ann Clg .4% Condns Enth=>MDB, ! Name
  32.2,                                   ! Maximum Dry-Bulb Temperature {C}
  10.7,                                   ! Daily Dry-Bulb Temperature Range {deltaC}
  83000,                                  ! Humidity Indicating Conditions at Maximum Dry-Bulb {BasedOnField A3}
  100201,                                 ! Barometric Pressure {Pa}
  3.2,                                    ! Wind Speed {m/s}
  350,                                    ! Wind Direction {deg}
  0,                                      ! Sky Clearness
  0,                                      ! Rain Indicator
  0,                                      ! Snow Indicator
  21,                                     ! Day of Month
  7,                                      ! Month
  SummerDesignDay,                        ! Day Type
  0,                                      ! Daylight Saving Time Indicator
  Enthalpy,                               ! Humidity Indicating Type
  ,                                       ! Humidity Indicating Day Schedule Name
  DefaultMultipliers,                     ! Dry-Bulb Temperature Range Modifier Type
  ,                                       ! Dry-Bulb Temperature Range Modifier Schedule Name
  ASHRAETau,                              ! Solar Model Indicator
  ,                                       ! Beam Solar Day Schedule Name
  ,                                       ! Diffuse Solar Day Schedule Name
  0.534,                                  ! ASHRAE Taub {dimensionless}
  1.869;                                  ! ASHRAE Taud {dimensionless}

