
OS:Version,
  {b1fbb953-a77d-485e-b8f4-37f10bb057f6}, ! Handle
  0.9.3;                                  ! Version Identifier

OS:SizingPeriod:DesignDay,
  {bc31d99c-350c-44ff-b5ae-227740368bc2}, ! Handle
  Edwards Afb Ann Clg 2% Condns WB=>MDB,  ! Name
  34.2,                                   ! Maximum Dry-Bulb Temperature {C}
  19.4,                                   ! Daily Dry-Bulb Temperature Range {deltaC}
  18.7,                                   ! Humidity Indicating Conditions at Maximum Dry-Bulb {BasedOnField A3}
  93126,                                  ! Barometric Pressure {Pa}
  4.9,                                    ! Wind Speed {m/s}
  240,                                    ! Wind Direction {deg}
  0,                                      ! Sky Clearness
  0,                                      ! Rain Indicator
  0,                                      ! Snow Indicator
  21,                                     ! Day of Month
  8,                                      ! Month
  SummerDesignDay,                        ! Day Type
  0,                                      ! Daylight Saving Time Indicator
  Wetbulb,                                ! Humidity Indicating Type
  ,                                       ! Humidity Indicating Day Schedule Name
  DefaultMultipliers,                     ! Dry-Bulb Temperature Range Modifier Type
  ,                                       ! Dry-Bulb Temperature Range Modifier Schedule Name
  ASHRAETau,                              ! Solar Model Indicator
  ,                                       ! Beam Solar Day Schedule Name
  ,                                       ! Diffuse Solar Day Schedule Name
  0.445,                                  ! ASHRAE Taub {dimensionless}
  1.991;                                  ! ASHRAE Taud {dimensionless}

OS:ComponentData,
  {13a6e72f-15ba-44b5-81e7-342ffba40b9f}, ! Handle
  Component Data 1,                       ! Name
  {1f451e9b-7a62-4821-93bc-5bd75f9b7ace}, ! UUID
  {80b6c751-a474-4d97-8afa-09d3d4fd4d56}, ! Version UUID
  1366306420,                             ! Creation Timestamp
  1366306420,                             ! Version Timestamp
  {bc31d99c-350c-44ff-b5ae-227740368bc2}; ! Name of Object 1

