
OS:Version,
  {777ac472-8840-4fd2-84e9-259cbd3bfea9}, ! Handle
  0.9.3;                                  ! Version Identifier

OS:SizingPeriod:DesignDay,
  {cebd1d57-bb71-4771-9857-dfe92ee249ae}, ! Handle
  Kaneohe Bay Mcas Ann Clg 1% Condns DB=>MWB, ! Name
  29.1,                                   ! Maximum Dry-Bulb Temperature {C}
  4,                                      ! Daily Dry-Bulb Temperature Range {deltaC}
  23.4,                                   ! Humidity Indicating Conditions at Maximum Dry-Bulb {BasedOnField A3}
  101289,                                 ! Barometric Pressure {Pa}
  4.4,                                    ! Wind Speed {m/s}
  70,                                     ! Wind Direction {deg}
  0,                                      ! Sky Clearness
  0,                                      ! Rain Indicator
  0,                                      ! Snow Indicator
  21,                                     ! Day of Month
  9,                                      ! Month
  SummerDesignDay,                        ! Day Type
  0,                                      ! Daylight Saving Time Indicator
  Wetbulb,                                ! Humidity Indicating Type
  ,                                       ! Humidity Indicating Day Schedule Name
  DefaultMultipliers,                     ! Dry-Bulb Temperature Range Modifier Type
  ,                                       ! Dry-Bulb Temperature Range Modifier Schedule Name
  ASHRAETau,                              ! Solar Model Indicator
  ,                                       ! Beam Solar Day Schedule Name
  ,                                       ! Diffuse Solar Day Schedule Name
  0.371,                                  ! ASHRAE Taub {dimensionless}
  2.619;                                  ! ASHRAE Taud {dimensionless}

OS:ComponentData,
  {531ea939-41df-4217-8071-0dd66f681431}, ! Handle
  Component Data 1,                       ! Name
  {cb0dcdfc-b315-4400-a975-fa3539e0ec35}, ! UUID
  {74602bb1-cae7-4a93-bc42-2f9cb15a039c}, ! Version UUID
  1366307103,                             ! Creation Timestamp
  1366307103,                             ! Version Timestamp
  {cebd1d57-bb71-4771-9857-dfe92ee249ae}; ! Name of Object 1

