
OS:Version,
  {55304650-6e66-4ce4-b56f-5db815ae5542}, ! Handle
  0.9.3;                                  ! Version Identifier

OS:SizingPeriod:DesignDay,
  {efe1548e-a678-4cb1-b1b6-171d730f9378}, ! Handle
  Akron/Canton Ann Clg .4% Condns Enth=>MDB, ! Name
  29.4,                                   ! Maximum Dry-Bulb Temperature {C}
  10.4,                                   ! Daily Dry-Bulb Temperature Range {deltaC}
  74600,                                  ! Humidity Indicating Conditions at Maximum Dry-Bulb {BasedOnField A3}
  96877,                                  ! Barometric Pressure {Pa}
  4.6,                                    ! Wind Speed {m/s}
  230,                                    ! Wind Direction {deg}
  0,                                      ! Sky Clearness
  0,                                      ! Rain Indicator
  0,                                      ! Snow Indicator
  21,                                     ! Day of Month
  7,                                      ! Month
  SummerDesignDay,                        ! Day Type
  0,                                      ! Daylight Saving Time Indicator
  Enthalpy,                               ! Humidity Indicating Type
  ,                                       ! Humidity Indicating Day Schedule Name
  DefaultMultipliers,                     ! Dry-Bulb Temperature Range Modifier Type
  ,                                       ! Dry-Bulb Temperature Range Modifier Schedule Name
  ASHRAETau,                              ! Solar Model Indicator
  ,                                       ! Beam Solar Day Schedule Name
  ,                                       ! Diffuse Solar Day Schedule Name
  0.464,                                  ! ASHRAE Taub {dimensionless}
  1.994;                                  ! ASHRAE Taud {dimensionless}

OS:ComponentData,
  {08864e32-154f-4014-8260-3d3bc95939bf}, ! Handle
  Component Data 1,                       ! Name
  {634d682b-70fe-46a3-a306-9b3603f84c4d}, ! UUID
  {c4e7084c-40b2-4da8-8129-26649d43fc93}, ! Version UUID
  1366309767,                             ! Creation Timestamp
  1366309767,                             ! Version Timestamp
  {efe1548e-a678-4cb1-b1b6-171d730f9378}; ! Name of Object 1

