
OS:Version,
  {9b9e2770-fa46-4a13-bcb9-fe0c7a8e8ccd}, ! Handle
  0.9.3;                                  ! Version Identifier

OS:SizingPeriod:DesignDay,
  {7c43025c-c5ac-4dce-b4ad-cd5691505c6e}, ! Handle
  Hondo Municipal Ap Ann Htg 99% Condns DB, ! Name
  -1.1,                                   ! Maximum Dry-Bulb Temperature {C}
  0,                                      ! Daily Dry-Bulb Temperature Range {deltaC}
  -1.1,                                   ! Humidity Indicating Conditions at Maximum Dry-Bulb {BasedOnField A3}
  98006,                                  ! Barometric Pressure {Pa}
  2.9,                                    ! Wind Speed {m/s}
  10,                                     ! Wind Direction {deg}
  0,                                      ! Sky Clearness
  0,                                      ! Rain Indicator
  0,                                      ! Snow Indicator
  21,                                     ! Day of Month
  1,                                      ! Month
  WinterDesignDay,                        ! Day Type
  0,                                      ! Daylight Saving Time Indicator
  Wetbulb,                                ! Humidity Indicating Type
  ,                                       ! Humidity Indicating Day Schedule Name
  DefaultMultipliers,                     ! Dry-Bulb Temperature Range Modifier Type
  ,                                       ! Dry-Bulb Temperature Range Modifier Schedule Name
  ASHRAEClearSky;                         ! Solar Model Indicator

OS:ComponentData,
  {159c0272-e8c3-440d-bd21-e4d81c7caa15}, ! Handle
  Component Data 1,                       ! Name
  {f18cb437-eb06-4c09-af1b-44dc847b83c3}, ! UUID
  {07689b9a-d316-42b3-99b3-84cd364d2476}, ! Version UUID
  1366310735,                             ! Creation Timestamp
  1366310735,                             ! Version Timestamp
  {7c43025c-c5ac-4dce-b4ad-cd5691505c6e}; ! Name of Object 1

