
OS:Version,
  {66532cda-d0c1-4f51-bc0e-0a0f82b19642}, ! Handle
  0.9.3;                                  ! Version Identifier

OS:SizingPeriod:DesignDay,
  {cb675cfe-1a22-49a3-b8c7-469a44c3132b}, ! Handle
  Grand Island Central Ne Regio Ann Clg .4% Condns DP=>MDB, ! Name
  28.7,                                   ! Maximum Dry-Bulb Temperature {C}
  12.2,                                   ! Daily Dry-Bulb Temperature Range {deltaC}
  23.2,                                   ! Humidity Indicating Conditions at Maximum Dry-Bulb {BasedOnField A3}
  94765,                                  ! Barometric Pressure {Pa}
  6.5,                                    ! Wind Speed {m/s}
  180,                                    ! Wind Direction {deg}
  0,                                      ! Sky Clearness
  0,                                      ! Rain Indicator
  0,                                      ! Snow Indicator
  21,                                     ! Day of Month
  7,                                      ! Month
  SummerDesignDay,                        ! Day Type
  0,                                      ! Daylight Saving Time Indicator
  Dewpoint,                               ! Humidity Indicating Type
  ,                                       ! Humidity Indicating Day Schedule Name
  DefaultMultipliers,                     ! Dry-Bulb Temperature Range Modifier Type
  ,                                       ! Dry-Bulb Temperature Range Modifier Schedule Name
  ASHRAETau,                              ! Solar Model Indicator
  ,                                       ! Beam Solar Day Schedule Name
  ,                                       ! Diffuse Solar Day Schedule Name
  0.405,                                  ! ASHRAE Taub {dimensionless}
  2.23;                                   ! ASHRAE Taud {dimensionless}

OS:ComponentData,
  {30d8ea0c-e167-4b1f-8123-6974620d7a5a}, ! Handle
  Component Data 1,                       ! Name
  {f7ff13cf-cf7c-42dc-a626-c64dfd11aff5}, ! UUID
  {decaddea-7ca1-4833-995e-6eec8624b0fa}, ! Version UUID
  1366309113,                             ! Creation Timestamp
  1366309113,                             ! Version Timestamp
  {cb675cfe-1a22-49a3-b8c7-469a44c3132b}; ! Name of Object 1

