
OS:Version,
  {05e7ebd7-82c0-4c90-80a8-da7db8157c5b}, ! Handle
  0.9.3;                                  ! Version Identifier

OS:SizingPeriod:DesignDay,
  {057bab4d-bf32-4df3-ad80-b4e9187ee3b9}, ! Handle
  Abilene Regional Ap  Ut Ann Clg 2% Condns Enth=>MDB, ! Name
  30.5,                                   ! Maximum Dry-Bulb Temperature {C}
  11.6,                                   ! Daily Dry-Bulb Temperature Range {deltaC}
  71100,                                  ! Humidity Indicating Conditions at Maximum Dry-Bulb {BasedOnField A3}
  95118,                                  ! Barometric Pressure {Pa}
  5.3,                                    ! Wind Speed {m/s}
  160,                                    ! Wind Direction {deg}
  0,                                      ! Sky Clearness
  0,                                      ! Rain Indicator
  0,                                      ! Snow Indicator
  21,                                     ! Day of Month
  7,                                      ! Month
  SummerDesignDay,                        ! Day Type
  0,                                      ! Daylight Saving Time Indicator
  Enthalpy,                               ! Humidity Indicating Type
  ,                                       ! Humidity Indicating Day Schedule Name
  DefaultMultipliers,                     ! Dry-Bulb Temperature Range Modifier Type
  ,                                       ! Dry-Bulb Temperature Range Modifier Schedule Name
  ASHRAETau,                              ! Solar Model Indicator
  ,                                       ! Beam Solar Day Schedule Name
  ,                                       ! Diffuse Solar Day Schedule Name
  0.426,                                  ! ASHRAE Taub {dimensionless}
  2.172;                                  ! ASHRAE Taud {dimensionless}

OS:ComponentData,
  {e824fa82-18af-462f-9582-d3606d811a75}, ! Handle
  Component Data 1,                       ! Name
  {8add4de7-fd02-4060-bba1-4a787fbef71a}, ! UUID
  {21ad247e-e350-4709-baf7-41852a4a326f}, ! Version UUID
  1366310560,                             ! Creation Timestamp
  1366310560,                             ! Version Timestamp
  {057bab4d-bf32-4df3-ad80-b4e9187ee3b9}; ! Name of Object 1

