
OS:Version,
  {f3a383ce-94ad-4600-94a5-4ec9b5f68718}, ! Handle
  0.9.3;                                  ! Version Identifier

OS:SizingPeriod:DesignDay,
  {ae4de98e-10cd-4f5e-8c71-e0ac6045dad3}, ! Handle
  Cape Girardeau Municipal Ap Ann Clg .4% Condns Enth=>MDB, ! Name
  32.3,                                   ! Maximum Dry-Bulb Temperature {C}
  10.7,                                   ! Daily Dry-Bulb Temperature Range {deltaC}
  84600,                                  ! Humidity Indicating Conditions at Maximum Dry-Bulb {BasedOnField A3}
  100094,                                 ! Barometric Pressure {Pa}
  3.9,                                    ! Wind Speed {m/s}
  210,                                    ! Wind Direction {deg}
  0,                                      ! Sky Clearness
  0,                                      ! Rain Indicator
  0,                                      ! Snow Indicator
  21,                                     ! Day of Month
  7,                                      ! Month
  SummerDesignDay,                        ! Day Type
  0,                                      ! Daylight Saving Time Indicator
  Enthalpy,                               ! Humidity Indicating Type
  ,                                       ! Humidity Indicating Day Schedule Name
  DefaultMultipliers,                     ! Dry-Bulb Temperature Range Modifier Type
  ,                                       ! Dry-Bulb Temperature Range Modifier Schedule Name
  ASHRAETau,                              ! Solar Model Indicator
  ,                                       ! Beam Solar Day Schedule Name
  ,                                       ! Diffuse Solar Day Schedule Name
  0.491,                                  ! ASHRAE Taub {dimensionless}
  1.953;                                  ! ASHRAE Taud {dimensionless}

OS:ComponentData,
  {39a677d9-48ab-477b-baed-57a4cccd8867}, ! Handle
  Component Data 1,                       ! Name
  {389ca5fb-9025-4323-adc0-91d8e28f942c}, ! UUID
  {3fde2b00-e5bc-4f72-b08f-f965f6d54f76}, ! Version UUID
  1366308476,                             ! Creation Timestamp
  1366308476,                             ! Version Timestamp
  {ae4de98e-10cd-4f5e-8c71-e0ac6045dad3}; ! Name of Object 1

