
OS:Version,
  {80ce0d61-11d8-48e4-9eeb-bb20dd463e90}, ! Handle
  0.9.3;                                  ! Version Identifier

OS:SizingPeriod:DesignDay,
  {ef975460-a107-40c6-90c9-2897c97ce3ad}, ! Handle
  Abilene Ann Clg .4% Condns DB=>MWB,     ! Name
  37.4,                                   ! Maximum Dry-Bulb Temperature {C}
  11.6,                                   ! Daily Dry-Bulb Temperature Range {deltaC}
  21.5,                                   ! Humidity Indicating Conditions at Maximum Dry-Bulb {BasedOnField A3}
  94935,                                  ! Barometric Pressure {Pa}
  5.3,                                    ! Wind Speed {m/s}
  160,                                    ! Wind Direction {deg}
  0,                                      ! Sky Clearness
  0,                                      ! Rain Indicator
  0,                                      ! Snow Indicator
  21,                                     ! Day of Month
  7,                                      ! Month
  SummerDesignDay,                        ! Day Type
  0,                                      ! Daylight Saving Time Indicator
  Wetbulb,                                ! Humidity Indicating Type
  ,                                       ! Humidity Indicating Day Schedule Name
  DefaultMultipliers,                     ! Dry-Bulb Temperature Range Modifier Type
  ,                                       ! Dry-Bulb Temperature Range Modifier Schedule Name
  ASHRAETau,                              ! Solar Model Indicator
  ,                                       ! Beam Solar Day Schedule Name
  ,                                       ! Diffuse Solar Day Schedule Name
  0.426,                                  ! ASHRAE Taub {dimensionless}
  2.172;                                  ! ASHRAE Taud {dimensionless}

OS:ComponentData,
  {7e90edf1-15cc-445a-a7bb-92086994ea5c}, ! Handle
  Component Data 1,                       ! Name
  {b2d0f470-b806-443b-af14-b1d6836ae003}, ! UUID
  {7ae5b551-1f3f-4cfb-8b9c-74261bebc980}, ! Version UUID
  1366310554,                             ! Creation Timestamp
  1366310554,                             ! Version Timestamp
  {ef975460-a107-40c6-90c9-2897c97ce3ad}; ! Name of Object 1

