
OS:Version,
  {7b9c4525-f4d8-4f48-9440-9aedad07b80f}, ! Handle
  0.9.3;                                  ! Version Identifier

OS:SizingPeriod:DesignDay,
  {dde85c66-5a30-45a9-8597-3ba3d3ab01b9}, ! Handle
  Harrison Marion Rgn Ann Clg .4% Condns DP=>MDB, ! Name
  26.4,                                   ! Maximum Dry-Bulb Temperature {C}
  10.1,                                   ! Daily Dry-Bulb Temperature Range {deltaC}
  22.5,                                   ! Humidity Indicating Conditions at Maximum Dry-Bulb {BasedOnField A3}
  96842,                                  ! Barometric Pressure {Pa}
  3.3,                                    ! Wind Speed {m/s}
  220,                                    ! Wind Direction {deg}
  0,                                      ! Sky Clearness
  0,                                      ! Rain Indicator
  0,                                      ! Snow Indicator
  21,                                     ! Day of Month
  7,                                      ! Month
  SummerDesignDay,                        ! Day Type
  0,                                      ! Daylight Saving Time Indicator
  Dewpoint,                               ! Humidity Indicating Type
  ,                                       ! Humidity Indicating Day Schedule Name
  DefaultMultipliers,                     ! Dry-Bulb Temperature Range Modifier Type
  ,                                       ! Dry-Bulb Temperature Range Modifier Schedule Name
  ASHRAETau,                              ! Solar Model Indicator
  ,                                       ! Beam Solar Day Schedule Name
  ,                                       ! Diffuse Solar Day Schedule Name
  0.499,                                  ! ASHRAE Taub {dimensionless}
  1.888;                                  ! ASHRAE Taud {dimensionless}

OS:ComponentData,
  {779ced6e-e16a-4b2f-b31c-6659062cd0dc}, ! Handle
  Component Data 1,                       ! Name
  {ac083422-3575-4029-ad01-1ccaf1ad9cac}, ! UUID
  {1116375c-ae68-42f1-91ee-e2ed23769501}, ! Version UUID
  1366311637,                             ! Creation Timestamp
  1366311637,                             ! Version Timestamp
  {dde85c66-5a30-45a9-8597-3ba3d3ab01b9}; ! Name of Object 1

