
OS:Version,
  {835c22a6-43bb-4131-8eac-fa8e89954862}, ! Handle
  0.9.3;                                  ! Version Identifier

OS:SizingPeriod:DesignDay,
  {fb7edcc7-d3d7-4a92-ba06-a12e726238e8}, ! Handle
  Crookston Muni Fld Ann Clg .4% Condns DB=>MWB, ! Name
  30.9,                                   ! Maximum Dry-Bulb Temperature {C}
  11.2,                                   ! Daily Dry-Bulb Temperature Range {deltaC}
  22.8,                                   ! Humidity Indicating Conditions at Maximum Dry-Bulb {BasedOnField A3}
  98088,                                  ! Barometric Pressure {Pa}
  6.2,                                    ! Wind Speed {m/s}
  180,                                    ! Wind Direction {deg}
  0,                                      ! Sky Clearness
  0,                                      ! Rain Indicator
  0,                                      ! Snow Indicator
  21,                                     ! Day of Month
  7,                                      ! Month
  SummerDesignDay,                        ! Day Type
  0,                                      ! Daylight Saving Time Indicator
  Wetbulb,                                ! Humidity Indicating Type
  ,                                       ! Humidity Indicating Day Schedule Name
  DefaultMultipliers,                     ! Dry-Bulb Temperature Range Modifier Type
  ,                                       ! Dry-Bulb Temperature Range Modifier Schedule Name
  ASHRAETau,                              ! Solar Model Indicator
  ,                                       ! Beam Solar Day Schedule Name
  ,                                       ! Diffuse Solar Day Schedule Name
  0.398,                                  ! ASHRAE Taub {dimensionless}
  2.243;                                  ! ASHRAE Taud {dimensionless}

OS:ComponentData,
  {3c303d7b-da17-4cc4-b2ef-15cc3945a9bc}, ! Handle
  Component Data 1,                       ! Name
  {2f30f4c0-22cc-448a-a2aa-11b6d0ee5c3d}, ! UUID
  {a849eb5f-72ed-4fa9-9d9a-08b815764736}, ! Version UUID
  1366308189,                             ! Creation Timestamp
  1366308189,                             ! Version Timestamp
  {fb7edcc7-d3d7-4a92-ba06-a12e726238e8}; ! Name of Object 1

