
OS:Version,
  {b0708676-1a46-4923-a2d1-c2ca6ba0d9dc}, ! Handle
  0.9.3;                                  ! Version Identifier

OS:SizingPeriod:DesignDay,
  {40559d13-9ac5-4daf-b1b5-ec29d65ef6e5}, ! Handle
  Creston Ann Hum_n 99.6% Condns DP=>MCDB, ! Name
  -20.2,                                  ! Maximum Dry-Bulb Temperature {C}
  0,                                      ! Daily Dry-Bulb Temperature Range {deltaC}
  -24,                                    ! Humidity Indicating Conditions at Maximum Dry-Bulb {BasedOnField A3}
  96680,                                  ! Barometric Pressure {Pa}
  3.8,                                    ! Wind Speed {m/s}
  280,                                    ! Wind Direction {deg}
  0,                                      ! Sky Clearness
  0,                                      ! Rain Indicator
  0,                                      ! Snow Indicator
  21,                                     ! Day of Month
  1,                                      ! Month
  WinterDesignDay,                        ! Day Type
  0,                                      ! Daylight Saving Time Indicator
  Dewpoint,                               ! Humidity Indicating Type
  ,                                       ! Humidity Indicating Day Schedule Name
  DefaultMultipliers,                     ! Dry-Bulb Temperature Range Modifier Type
  ,                                       ! Dry-Bulb Temperature Range Modifier Schedule Name
  ASHRAEClearSky;                         ! Solar Model Indicator

OS:ComponentData,
  {aedabde1-4611-4717-a720-c16b4e861825}, ! Handle
  Component Data 1,                       ! Name
  {b4daba89-f2d1-49d2-b500-a7e3a555811a}, ! UUID
  {a71e2ce4-2ebf-4214-be47-4bc56e12adff}, ! Version UUID
  1366307164,                             ! Creation Timestamp
  1366307164,                             ! Version Timestamp
  {40559d13-9ac5-4daf-b1b5-ec29d65ef6e5}; ! Name of Object 1

