
OS:Version,
  {8a4e7fdb-45ab-474e-b281-c2b98d9d6085}, ! Handle
  0.9.3;                                  ! Version Identifier

OS:SizingPeriod:DesignDay,
  {8b354e21-38e1-4df1-b0c7-3f8cc4a31e75}, ! Handle
  Bremerton National Ann Clg .4% Condns DP=>MDB, ! Name
  22,                                     ! Maximum Dry-Bulb Temperature {C}
  12.3,                                   ! Daily Dry-Bulb Temperature Range {deltaC}
  15.1,                                   ! Humidity Indicating Conditions at Maximum Dry-Bulb {BasedOnField A3}
  99690,                                  ! Barometric Pressure {Pa}
  3.3,                                    ! Wind Speed {m/s}
  60,                                     ! Wind Direction {deg}
  0,                                      ! Sky Clearness
  0,                                      ! Rain Indicator
  0,                                      ! Snow Indicator
  21,                                     ! Day of Month
  7,                                      ! Month
  SummerDesignDay,                        ! Day Type
  0,                                      ! Daylight Saving Time Indicator
  Dewpoint,                               ! Humidity Indicating Type
  ,                                       ! Humidity Indicating Day Schedule Name
  DefaultMultipliers,                     ! Dry-Bulb Temperature Range Modifier Type
  ,                                       ! Dry-Bulb Temperature Range Modifier Schedule Name
  ASHRAETau,                              ! Solar Model Indicator
  ,                                       ! Beam Solar Day Schedule Name
  ,                                       ! Diffuse Solar Day Schedule Name
  0.361,                                  ! ASHRAE Taub {dimensionless}
  2.492;                                  ! ASHRAE Taud {dimensionless}

OS:ComponentData,
  {733ff0cf-6f1e-430d-8ec4-2520d8ccb1bf}, ! Handle
  Component Data 1,                       ! Name
  {7469f404-4c4e-4e64-89d4-48c39b38126b}, ! UUID
  {01aac33d-5089-4d6c-ba51-e45d555efda8}, ! Version UUID
  1366311273,                             ! Creation Timestamp
  1366311273,                             ! Version Timestamp
  {8b354e21-38e1-4df1-b0c7-3f8cc4a31e75}; ! Name of Object 1

