
OS:Version,
  {f7d31342-c2eb-4d28-b743-80da3b72e6dc}, ! Handle
  0.9.3;                                  ! Version Identifier

OS:SizingPeriod:DesignDay,
  {946f730b-3591-4520-82e8-23314b10d98a}, ! Handle
  AUSTIN Ann Clg .4% Condns DB=>MWB,      ! Name
  37.6,                                   ! Maximum Dry-Bulb Temperature {C}
  12.5,                                   ! Daily Dry-Bulb Temperature Range {deltaC}
  23.9,                                   ! Humidity Indicating Conditions at Maximum Dry-Bulb {BasedOnField A3}
  99075,                                  ! Barometric Pressure {Pa}
  3.7,                                    ! Wind Speed {m/s}
  190,                                    ! Wind Direction {deg}
  0,                                      ! Sky Clearness
  0,                                      ! Rain Indicator
  0,                                      ! Snow Indicator
  21,                                     ! Day of Month
  8,                                      ! Month
  SummerDesignDay,                        ! Day Type
  0,                                      ! Daylight Saving Time Indicator
  Wetbulb,                                ! Humidity Indicating Type
  ,                                       ! Humidity Indicating Day Schedule Name
  DefaultMultipliers,                     ! Dry-Bulb Temperature Range Modifier Type
  ,                                       ! Dry-Bulb Temperature Range Modifier Schedule Name
  ASHRAETau,                              ! Solar Model Indicator
  ,                                       ! Beam Solar Day Schedule Name
  ,                                       ! Diffuse Solar Day Schedule Name
  0.457,                                  ! ASHRAE Taub {dimensionless}
  2.114;                                  ! ASHRAE Taud {dimensionless}

OS:ComponentData,
  {7048cce0-76ee-49b0-84dc-0930d131e01e}, ! Handle
  Component Data 1,                       ! Name
  {e0ba700a-dbfb-414f-8efa-45df69c5c7cd}, ! UUID
  {816c94d8-3d92-4cec-870f-cbf0d6ec5234}, ! Version UUID
  1366310590,                             ! Creation Timestamp
  1366310590,                             ! Version Timestamp
  {946f730b-3591-4520-82e8-23314b10d98a}; ! Name of Object 1

