
OS:Version,
  {e43dc9a9-c05d-4696-9fb1-f8487f92e9bf}, ! Handle
  0.9.3;                                  ! Version Identifier

OS:SizingPeriod:DesignDay,
  {8ceb6059-c05b-40f0-aa8c-38147e576bf5}, ! Handle
  Covington/Cincinnati O Ann Clg 2% Condns Enth=>MDB, ! Name
  28.4,                                   ! Maximum Dry-Bulb Temperature {C}
  10.3,                                   ! Daily Dry-Bulb Temperature Range {deltaC}
  72200,                                  ! Humidity Indicating Conditions at Maximum Dry-Bulb {BasedOnField A3}
  98158,                                  ! Barometric Pressure {Pa}
  4.3,                                    ! Wind Speed {m/s}
  230,                                    ! Wind Direction {deg}
  0,                                      ! Sky Clearness
  0,                                      ! Rain Indicator
  0,                                      ! Snow Indicator
  21,                                     ! Day of Month
  7,                                      ! Month
  SummerDesignDay,                        ! Day Type
  0,                                      ! Daylight Saving Time Indicator
  Enthalpy,                               ! Humidity Indicating Type
  ,                                       ! Humidity Indicating Day Schedule Name
  DefaultMultipliers,                     ! Dry-Bulb Temperature Range Modifier Type
  ,                                       ! Dry-Bulb Temperature Range Modifier Schedule Name
  ASHRAETau,                              ! Solar Model Indicator
  ,                                       ! Beam Solar Day Schedule Name
  ,                                       ! Diffuse Solar Day Schedule Name
  0.493,                                  ! ASHRAE Taub {dimensionless}
  1.911;                                  ! ASHRAE Taud {dimensionless}

OS:ComponentData,
  {c9d84830-281c-47cb-b761-65d1c20c85c8}, ! Handle
  Component Data 1,                       ! Name
  {e3886eab-8811-4edc-b5b7-f688005b34b4}, ! UUID
  {b61715e9-b11f-449f-b03b-b9993c7a827b}, ! Version UUID
  1366307619,                             ! Creation Timestamp
  1366307619,                             ! Version Timestamp
  {8ceb6059-c05b-40f0-aa8c-38147e576bf5}; ! Name of Object 1

