
OS:Version,
  {801d1e72-983a-4f4b-8a34-f75fb545b34f}, ! Handle
  0.9.3;                                  ! Version Identifier

OS:SizingPeriod:DesignDay,
  {9accfdf3-a90e-49ee-a009-824b424184dd}, ! Handle
  La Grande Muni Ap Ann Clg 1% Condns Enth=>MDB, ! Name
  29.9,                                   ! Maximum Dry-Bulb Temperature {C}
  17.9,                                   ! Daily Dry-Bulb Temperature Range {deltaC}
  52300,                                  ! Humidity Indicating Conditions at Maximum Dry-Bulb {BasedOnField A3}
  91777,                                  ! Barometric Pressure {Pa}
  3.7,                                    ! Wind Speed {m/s}
  310,                                    ! Wind Direction {deg}
  0,                                      ! Sky Clearness
  0,                                      ! Rain Indicator
  0,                                      ! Snow Indicator
  21,                                     ! Day of Month
  7,                                      ! Month
  SummerDesignDay,                        ! Day Type
  0,                                      ! Daylight Saving Time Indicator
  Enthalpy,                               ! Humidity Indicating Type
  ,                                       ! Humidity Indicating Day Schedule Name
  DefaultMultipliers,                     ! Dry-Bulb Temperature Range Modifier Type
  ,                                       ! Dry-Bulb Temperature Range Modifier Schedule Name
  ASHRAETau,                              ! Solar Model Indicator
  ,                                       ! Beam Solar Day Schedule Name
  ,                                       ! Diffuse Solar Day Schedule Name
  0.366,                                  ! ASHRAE Taub {dimensionless}
  2.357;                                  ! ASHRAE Taud {dimensionless}

