
OS:Version,
  {e3aefaed-3623-47ca-8c35-0d7492af98a9}, ! Handle
  0.9.3;                                  ! Version Identifier

OS:SizingPeriod:DesignDay,
  {2e28eb08-5fcd-4003-99c0-ebe1bfd6ae38}, ! Handle
  DAYTON Ann Clg 1% Condns Enth=>MDB,     ! Name
  29.2,                                   ! Maximum Dry-Bulb Temperature {C}
  11,                                     ! Daily Dry-Bulb Temperature Range {deltaC}
  74800,                                  ! Humidity Indicating Conditions at Maximum Dry-Bulb {BasedOnField A3}
  97703,                                  ! Barometric Pressure {Pa}
  3.9,                                    ! Wind Speed {m/s}
  240,                                    ! Wind Direction {deg}
  0,                                      ! Sky Clearness
  0,                                      ! Rain Indicator
  0,                                      ! Snow Indicator
  21,                                     ! Day of Month
  7,                                      ! Month
  SummerDesignDay,                        ! Day Type
  0,                                      ! Daylight Saving Time Indicator
  Enthalpy,                               ! Humidity Indicating Type
  ,                                       ! Humidity Indicating Day Schedule Name
  DefaultMultipliers,                     ! Dry-Bulb Temperature Range Modifier Type
  ,                                       ! Dry-Bulb Temperature Range Modifier Schedule Name
  ASHRAETau,                              ! Solar Model Indicator
  ,                                       ! Beam Solar Day Schedule Name
  ,                                       ! Diffuse Solar Day Schedule Name
  0.484,                                  ! ASHRAE Taub {dimensionless}
  1.94;                                   ! ASHRAE Taud {dimensionless}

OS:ComponentData,
  {0615e19d-111c-44da-bbd9-c954a93bc298}, ! Handle
  Component Data 1,                       ! Name
  {68ec03d9-2539-45d8-932a-19ac1b61ab9b}, ! UUID
  {772cf7e1-a319-4888-9d6c-12cb2763c64f}, ! Version UUID
  1366309818,                             ! Creation Timestamp
  1366309818,                             ! Version Timestamp
  {2e28eb08-5fcd-4003-99c0-ebe1bfd6ae38}; ! Name of Object 1

