
OS:Version,
  {8cb9dd45-de52-4c3c-a370-44d58e74d47d}, ! Handle
  0.9.3;                                  ! Version Identifier

OS:SizingPeriod:DesignDay,
  {4cad7ad9-9d30-4803-81f9-ea58b2cc4fc2}, ! Handle
  Birmingham Ann Clg 2% Condns DB=>MWB,   ! Name
  32.5,                                   ! Maximum Dry-Bulb Temperature {C}
  10.3,                                   ! Daily Dry-Bulb Temperature Range {deltaC}
  23.6,                                   ! Humidity Indicating Conditions at Maximum Dry-Bulb {BasedOnField A3}
  99040,                                  ! Barometric Pressure {Pa}
  3.5,                                    ! Wind Speed {m/s}
  330,                                    ! Wind Direction {deg}
  0,                                      ! Sky Clearness
  0,                                      ! Rain Indicator
  0,                                      ! Snow Indicator
  21,                                     ! Day of Month
  7,                                      ! Month
  SummerDesignDay,                        ! Day Type
  0,                                      ! Daylight Saving Time Indicator
  Wetbulb,                                ! Humidity Indicating Type
  ,                                       ! Humidity Indicating Day Schedule Name
  DefaultMultipliers,                     ! Dry-Bulb Temperature Range Modifier Type
  ,                                       ! Dry-Bulb Temperature Range Modifier Schedule Name
  ASHRAETau,                              ! Solar Model Indicator
  ,                                       ! Beam Solar Day Schedule Name
  ,                                       ! Diffuse Solar Day Schedule Name
  0.583,                                  ! ASHRAE Taub {dimensionless}
  1.723;                                  ! ASHRAE Taud {dimensionless}

OS:ComponentData,
  {35480d23-b2a3-4c94-a870-5980b73ea6b1}, ! Handle
  Component Data 1,                       ! Name
  {92de55c7-0faa-4d6e-8b54-1b51d72198f3}, ! UUID
  {b8d63173-bfb9-46de-8da2-8bd5571bdd39}, ! Version UUID
  1366305643,                             ! Creation Timestamp
  1366305643,                             ! Version Timestamp
  {4cad7ad9-9d30-4803-81f9-ea58b2cc4fc2}; ! Name of Object 1

