
OS:Version,
  {6cc061fd-7c1e-442e-a899-afc6660948d0}, ! Handle
  0.9.3;                                  ! Version Identifier

OS:SizingPeriod:DesignDay,
  {4f57ce0a-6ce4-44b3-aa24-e5fed142c8c8}, ! Handle
  GULKANA Ann Htg 99.6% Condns DB,        ! Name
  -38.7,                                  ! Maximum Dry-Bulb Temperature {C}
  0,                                      ! Daily Dry-Bulb Temperature Range {deltaC}
  -38.7,                                  ! Humidity Indicating Conditions at Maximum Dry-Bulb {BasedOnField A3}
  95679,                                  ! Barometric Pressure {Pa}
  0.6,                                    ! Wind Speed {m/s}
  330,                                    ! Wind Direction {deg}
  0,                                      ! Sky Clearness
  0,                                      ! Rain Indicator
  0,                                      ! Snow Indicator
  21,                                     ! Day of Month
  1,                                      ! Month
  WinterDesignDay,                        ! Day Type
  0,                                      ! Daylight Saving Time Indicator
  Wetbulb,                                ! Humidity Indicating Type
  ,                                       ! Humidity Indicating Day Schedule Name
  DefaultMultipliers,                     ! Dry-Bulb Temperature Range Modifier Type
  ,                                       ! Dry-Bulb Temperature Range Modifier Schedule Name
  ASHRAEClearSky;                         ! Solar Model Indicator

OS:ComponentData,
  {49e95ff8-d892-4216-9a0d-162e1a00dfa1}, ! Handle
  Component Data 1,                       ! Name
  {ec2d0c73-2108-4a93-9748-e0391cf0c268}, ! UUID
  {ba9c21f5-af07-477c-b2db-f4359be1db30}, ! Version UUID
  1366305284,                             ! Creation Timestamp
  1366305284,                             ! Version Timestamp
  {4f57ce0a-6ce4-44b3-aa24-e5fed142c8c8}; ! Name of Object 1

