
OS:Version,
  {4951a0ad-6a6b-4d6e-8de4-a9b1e520b94f}, ! Handle
  0.9.3;                                  ! Version Identifier

OS:SizingPeriod:DesignDay,
  {ba3bf54e-71fc-4cc1-9fe7-fe1e764ae01e}, ! Handle
  Hilo International Ap Ann Clg 2% Condns DP=>MDB, ! Name
  25.6,                                   ! Maximum Dry-Bulb Temperature {C}
  7,                                      ! Daily Dry-Bulb Temperature Range {deltaC}
  23,                                     ! Humidity Indicating Conditions at Maximum Dry-Bulb {BasedOnField A3}
  101217,                                 ! Barometric Pressure {Pa}
  4.8,                                    ! Wind Speed {m/s}
  90,                                     ! Wind Direction {deg}
  0,                                      ! Sky Clearness
  0,                                      ! Rain Indicator
  0,                                      ! Snow Indicator
  21,                                     ! Day of Month
  8,                                      ! Month
  SummerDesignDay,                        ! Day Type
  0,                                      ! Daylight Saving Time Indicator
  Dewpoint,                               ! Humidity Indicating Type
  ,                                       ! Humidity Indicating Day Schedule Name
  DefaultMultipliers,                     ! Dry-Bulb Temperature Range Modifier Type
  ,                                       ! Dry-Bulb Temperature Range Modifier Schedule Name
  ASHRAETau,                              ! Solar Model Indicator
  ,                                       ! Beam Solar Day Schedule Name
  ,                                       ! Diffuse Solar Day Schedule Name
  0.411,                                  ! ASHRAE Taub {dimensionless}
  2.427;                                  ! ASHRAE Taud {dimensionless}

OS:ComponentData,
  {71eb6d27-ec41-4e49-8659-4354c03d4b36}, ! Handle
  Component Data 1,                       ! Name
  {7e755c8d-60ea-43de-a1bd-5dc10c7d0f39}, ! UUID
  {70e042a1-76d3-4116-af26-094d44785e4e}, ! Version UUID
  1366307085,                             ! Creation Timestamp
  1366307085,                             ! Version Timestamp
  {ba3bf54e-71fc-4cc1-9fe7-fe1e764ae01e}; ! Name of Object 1

