
OS:Version,
  {7cc60ba4-4e59-4d42-a411-392708940259}, ! Handle
  0.9.3;                                  ! Version Identifier

OS:SizingPeriod:DesignDay,
  {3b1a1e5d-6351-4f80-a507-4ee41ab913bc}, ! Handle
  Brookings  Awos Ann Clg .4% Condns WB=>MDB, ! Name
  29.7,                                   ! Maximum Dry-Bulb Temperature {C}
  10.8,                                   ! Daily Dry-Bulb Temperature Range {deltaC}
  24.1,                                   ! Humidity Indicating Conditions at Maximum Dry-Bulb {BasedOnField A3}
  95438,                                  ! Barometric Pressure {Pa}
  5.9,                                    ! Wind Speed {m/s}
  190,                                    ! Wind Direction {deg}
  0,                                      ! Sky Clearness
  0,                                      ! Rain Indicator
  0,                                      ! Snow Indicator
  21,                                     ! Day of Month
  7,                                      ! Month
  SummerDesignDay,                        ! Day Type
  0,                                      ! Daylight Saving Time Indicator
  Wetbulb,                                ! Humidity Indicating Type
  ,                                       ! Humidity Indicating Day Schedule Name
  DefaultMultipliers,                     ! Dry-Bulb Temperature Range Modifier Type
  ,                                       ! Dry-Bulb Temperature Range Modifier Schedule Name
  ASHRAETau,                              ! Solar Model Indicator
  ,                                       ! Beam Solar Day Schedule Name
  ,                                       ! Diffuse Solar Day Schedule Name
  0.39,                                   ! ASHRAE Taub {dimensionless}
  2.285;                                  ! ASHRAE Taud {dimensionless}

OS:ComponentData,
  {61b720a5-ee86-4f21-9792-f93bb019b6e1}, ! Handle
  Component Data 1,                       ! Name
  {8a726aca-2033-48eb-909c-4219e5c375a0}, ! UUID
  {e4be80c9-9fa6-4e12-9ae9-5f866651e494}, ! Version UUID
  1366310389,                             ! Creation Timestamp
  1366310389,                             ! Version Timestamp
  {3b1a1e5d-6351-4f80-a507-4ee41ab913bc}; ! Name of Object 1

