
OS:Version,
  {7d4b3580-d4e6-45e8-b96f-be2c06a81edb}, ! Handle
  0.9.3;                                  ! Version Identifier

OS:SizingPeriod:DesignDay,
  {80e5a91f-3745-440c-a949-6332a9548f94}, ! Handle
  Abilene Ann Htg Wind 99.6% Condns WS=>MCDB, ! Name
  11.8,                                   ! Maximum Dry-Bulb Temperature {C}
  0,                                      ! Daily Dry-Bulb Temperature Range {deltaC}
  11.8,                                   ! Humidity Indicating Conditions at Maximum Dry-Bulb {BasedOnField A3}
  94935,                                  ! Barometric Pressure {Pa}
  13,                                     ! Wind Speed {m/s}
  10,                                     ! Wind Direction {deg}
  0,                                      ! Sky Clearness
  0,                                      ! Rain Indicator
  0,                                      ! Snow Indicator
  21,                                     ! Day of Month
  1,                                      ! Month
  WinterDesignDay,                        ! Day Type
  0,                                      ! Daylight Saving Time Indicator
  Wetbulb,                                ! Humidity Indicating Type
  ,                                       ! Humidity Indicating Day Schedule Name
  DefaultMultipliers,                     ! Dry-Bulb Temperature Range Modifier Type
  ,                                       ! Dry-Bulb Temperature Range Modifier Schedule Name
  ASHRAEClearSky;                         ! Solar Model Indicator

OS:ComponentData,
  {be866f0a-d9f2-4556-a9db-93e6584245f0}, ! Handle
  Component Data 1,                       ! Name
  {09ac2725-a5d3-4594-bf13-2720d4d5ba9c}, ! UUID
  {f7df0633-8851-4ab4-99f0-0e538cf9b17f}, ! Version UUID
  1366310554,                             ! Creation Timestamp
  1366310554,                             ! Version Timestamp
  {80e5a91f-3745-440c-a949-6332a9548f94}; ! Name of Object 1

