
OS:Version,
  {7f10ef02-481d-41a0-9ce9-f368d2a75cc9}, ! Handle
  0.9.3;                                  ! Version Identifier

OS:SizingPeriod:DesignDay,
  {fc770043-b4ed-4afc-8221-5f3a44447637}, ! Handle
  Greensboro Ann Clg 2% Condns WB=>MDB,   ! Name
  29,                                     ! Maximum Dry-Bulb Temperature {C}
  9.9,                                    ! Daily Dry-Bulb Temperature Range {deltaC}
  23.8,                                   ! Humidity Indicating Conditions at Maximum Dry-Bulb {BasedOnField A3}
  98123,                                  ! Barometric Pressure {Pa}
  3.4,                                    ! Wind Speed {m/s}
  230,                                    ! Wind Direction {deg}
  0,                                      ! Sky Clearness
  0,                                      ! Rain Indicator
  0,                                      ! Snow Indicator
  21,                                     ! Day of Month
  7,                                      ! Month
  SummerDesignDay,                        ! Day Type
  0,                                      ! Daylight Saving Time Indicator
  Wetbulb,                                ! Humidity Indicating Type
  ,                                       ! Humidity Indicating Day Schedule Name
  DefaultMultipliers,                     ! Dry-Bulb Temperature Range Modifier Type
  ,                                       ! Dry-Bulb Temperature Range Modifier Schedule Name
  ASHRAETau,                              ! Solar Model Indicator
  ,                                       ! Beam Solar Day Schedule Name
  ,                                       ! Diffuse Solar Day Schedule Name
  0.557,                                  ! ASHRAE Taub {dimensionless}
  1.757;                                  ! ASHRAE Taud {dimensionless}

OS:ComponentData,
  {0fe59e51-f33e-4f57-aad4-e039a6ce18a3}, ! Handle
  Component Data 1,                       ! Name
  {d3e1d6eb-0323-469f-aedf-007affecc509}, ! UUID
  {c5075abf-3092-4fda-afbd-1deea2d0eb59}, ! Version UUID
  1366308928,                             ! Creation Timestamp
  1366308928,                             ! Version Timestamp
  {fc770043-b4ed-4afc-8221-5f3a44447637}; ! Name of Object 1

