
OS:Version,
  {215ec2a1-fbf8-44d4-927d-9e356f0bbfdd}, ! Handle
  0.9.3;                                  ! Version Identifier

OS:SizingPeriod:DesignDay,
  {0455af83-bbaa-48dc-b9d9-c947e5d5b380}, ! Handle
  JACKSON Ann Hum_n 99.6% Condns DP=>MCDB, ! Name
  -1,                                     ! Maximum Dry-Bulb Temperature {C}
  0,                                      ! Daily Dry-Bulb Temperature Range {deltaC}
  -12.2,                                  ! Humidity Indicating Conditions at Maximum Dry-Bulb {BasedOnField A3}
  100118,                                 ! Barometric Pressure {Pa}
  2.6,                                    ! Wind Speed {m/s}
  350,                                    ! Wind Direction {deg}
  0,                                      ! Sky Clearness
  0,                                      ! Rain Indicator
  0,                                      ! Snow Indicator
  21,                                     ! Day of Month
  1,                                      ! Month
  WinterDesignDay,                        ! Day Type
  0,                                      ! Daylight Saving Time Indicator
  Dewpoint,                               ! Humidity Indicating Type
  ,                                       ! Humidity Indicating Day Schedule Name
  DefaultMultipliers,                     ! Dry-Bulb Temperature Range Modifier Type
  ,                                       ! Dry-Bulb Temperature Range Modifier Schedule Name
  ASHRAEClearSky;                         ! Solar Model Indicator

OS:ComponentData,
  {47e43d84-37a7-427e-8cf8-14836872cfaf}, ! Handle
  Component Data 1,                       ! Name
  {2fe853a0-0e26-480c-aac0-8b601b8df54b}, ! UUID
  {827bb4ee-af93-477c-9343-fc027be5b8a3}, ! Version UUID
  1366308638,                             ! Creation Timestamp
  1366308638,                             ! Version Timestamp
  {0455af83-bbaa-48dc-b9d9-c947e5d5b380}; ! Name of Object 1

