
OS:Version,
  {cf649eb4-6f31-4c18-8479-f94bea637110}, ! Handle
  0.9.3;                                  ! Version Identifier

OS:SizingPeriod:DesignDay,
  {a2bd3deb-24ee-4ea0-8ba3-4cabf91b42d7}, ! Handle
  Louisville Ann Clg .4% Condns WB=>MDB,  ! Name
  31.7,                                   ! Maximum Dry-Bulb Temperature {C}
  9.7,                                    ! Daily Dry-Bulb Temperature Range {deltaC}
  26,                                     ! Humidity Indicating Conditions at Maximum Dry-Bulb {BasedOnField A3}
  99548,                                  ! Barometric Pressure {Pa}
  4.2,                                    ! Wind Speed {m/s}
  240,                                    ! Wind Direction {deg}
  0,                                      ! Sky Clearness
  0,                                      ! Rain Indicator
  0,                                      ! Snow Indicator
  21,                                     ! Day of Month
  7,                                      ! Month
  SummerDesignDay,                        ! Day Type
  0,                                      ! Daylight Saving Time Indicator
  Wetbulb,                                ! Humidity Indicating Type
  ,                                       ! Humidity Indicating Day Schedule Name
  DefaultMultipliers,                     ! Dry-Bulb Temperature Range Modifier Type
  ,                                       ! Dry-Bulb Temperature Range Modifier Schedule Name
  ASHRAETau,                              ! Solar Model Indicator
  ,                                       ! Beam Solar Day Schedule Name
  ,                                       ! Diffuse Solar Day Schedule Name
  0.51,                                   ! ASHRAE Taub {dimensionless}
  1.872;                                  ! ASHRAE Taud {dimensionless}

OS:ComponentData,
  {767cacc1-e86a-4272-8f50-93d3cd18ef0b}, ! Handle
  Component Data 1,                       ! Name
  {2b833cde-d8fa-4fbb-9c57-df0b0a2cf9ee}, ! UUID
  {93e7fe42-6e6a-4f95-82ae-eb3cd282fabb}, ! Version UUID
  1366307667,                             ! Creation Timestamp
  1366307667,                             ! Version Timestamp
  {a2bd3deb-24ee-4ea0-8ba3-4cabf91b42d7}; ! Name of Object 1

