
OS:Version,
  {81735f34-fcf2-41a4-ac8e-fcd6aafde74e}, ! Handle
  0.9.3;                                  ! Version Identifier

OS:SizingPeriod:DesignDay,
  {8e1af516-e529-4b8b-abe1-37007f00bf47}, ! Handle
  Lubbock International Ap Ann Htg 99.6% Condns DB, ! Name
  -10.4,                                  ! Maximum Dry-Bulb Temperature {C}
  0,                                      ! Daily Dry-Bulb Temperature Range {deltaC}
  -10.4,                                  ! Humidity Indicating Conditions at Maximum Dry-Bulb {BasedOnField A3}
  89962,                                  ! Barometric Pressure {Pa}
  4.8,                                    ! Wind Speed {m/s}
  60,                                     ! Wind Direction {deg}
  0,                                      ! Sky Clearness
  0,                                      ! Rain Indicator
  0,                                      ! Snow Indicator
  21,                                     ! Day of Month
  12,                                     ! Month
  WinterDesignDay,                        ! Day Type
  0,                                      ! Daylight Saving Time Indicator
  Wetbulb,                                ! Humidity Indicating Type
  ,                                       ! Humidity Indicating Day Schedule Name
  DefaultMultipliers,                     ! Dry-Bulb Temperature Range Modifier Type
  ,                                       ! Dry-Bulb Temperature Range Modifier Schedule Name
  ASHRAEClearSky;                         ! Solar Model Indicator

OS:ComponentData,
  {7f912340-9062-43e0-8a6a-c7d906b957af}, ! Handle
  Component Data 1,                       ! Name
  {9bd2f9e1-cc3f-4b71-aa64-e59b818cd0e6}, ! UUID
  {5c588f90-d543-4c51-bdd2-79f800b7b4fb}, ! Version UUID
  1366310798,                             ! Creation Timestamp
  1366310798,                             ! Version Timestamp
  {8e1af516-e529-4b8b-abe1-37007f00bf47}; ! Name of Object 1

