
OS:Version,
  {724a2c0c-c2e5-4522-9e8c-9473d6932908}, ! Handle
  0.9.3;                                  ! Version Identifier

OS:SizingPeriod:DesignDay,
  {588751a6-f22e-4a8a-afec-da78d214333f}, ! Handle
  Erie Ann Clg .4% Condns Enth=>MDB,      ! Name
  28.2,                                   ! Maximum Dry-Bulb Temperature {C}
  8.3,                                    ! Daily Dry-Bulb Temperature Range {deltaC}
  73300,                                  ! Humidity Indicating Conditions at Maximum Dry-Bulb {BasedOnField A3}
  98651,                                  ! Barometric Pressure {Pa}
  5,                                      ! Wind Speed {m/s}
  260,                                    ! Wind Direction {deg}
  0,                                      ! Sky Clearness
  0,                                      ! Rain Indicator
  0,                                      ! Snow Indicator
  21,                                     ! Day of Month
  7,                                      ! Month
  SummerDesignDay,                        ! Day Type
  0,                                      ! Daylight Saving Time Indicator
  Enthalpy,                               ! Humidity Indicating Type
  ,                                       ! Humidity Indicating Day Schedule Name
  DefaultMultipliers,                     ! Dry-Bulb Temperature Range Modifier Type
  ,                                       ! Dry-Bulb Temperature Range Modifier Schedule Name
  ASHRAETau,                              ! Solar Model Indicator
  ,                                       ! Beam Solar Day Schedule Name
  ,                                       ! Diffuse Solar Day Schedule Name
  0.455,                                  ! ASHRAE Taub {dimensionless}
  2.041;                                  ! ASHRAE Taud {dimensionless}

