
OS:Version,
  {e62b0eda-0b9f-4ac6-b4fc-b4840f5f142a}, ! Handle
  0.9.3;                                  ! Version Identifier

OS:SizingPeriod:DesignDay,
  {7045c701-ba37-47cd-9d2e-c072e991eea1}, ! Handle
  Buffalo Niagara Intl Ap Ann Clg .4% Condns WB=>MDB, ! Name
  27.8,                                   ! Maximum Dry-Bulb Temperature {C}
  9.3,                                    ! Daily Dry-Bulb Temperature Range {deltaC}
  23.8,                                   ! Humidity Indicating Conditions at Maximum Dry-Bulb {BasedOnField A3}
  98769,                                  ! Barometric Pressure {Pa}
  5.7,                                    ! Wind Speed {m/s}
  240,                                    ! Wind Direction {deg}
  0,                                      ! Sky Clearness
  0,                                      ! Rain Indicator
  0,                                      ! Snow Indicator
  21,                                     ! Day of Month
  7,                                      ! Month
  SummerDesignDay,                        ! Day Type
  0,                                      ! Daylight Saving Time Indicator
  Wetbulb,                                ! Humidity Indicating Type
  ,                                       ! Humidity Indicating Day Schedule Name
  DefaultMultipliers,                     ! Dry-Bulb Temperature Range Modifier Type
  ,                                       ! Dry-Bulb Temperature Range Modifier Schedule Name
  ASHRAETau,                              ! Solar Model Indicator
  ,                                       ! Beam Solar Day Schedule Name
  ,                                       ! Diffuse Solar Day Schedule Name
  0.462,                                  ! ASHRAE Taub {dimensionless}
  2.001;                                  ! ASHRAE Taud {dimensionless}

OS:ComponentData,
  {bc83c84d-51eb-438e-a9f4-bfedf3ff02fb}, ! Handle
  Component Data 1,                       ! Name
  {b7f154e3-0d3e-4ee7-a29e-8b3e14fc5c3a}, ! UUID
  {5c2b56ad-0dbf-468c-a1f1-ab754070acd4}, ! Version UUID
  1366309608,                             ! Creation Timestamp
  1366309608,                             ! Version Timestamp
  {7045c701-ba37-47cd-9d2e-c072e991eea1}; ! Name of Object 1

