
OS:Version,
  {9aaa0666-c562-425d-b8ca-64b7aec99ec3}, ! Handle
  0.9.3;                                  ! Version Identifier

OS:SizingPeriod:DesignDay,
  {39843160-c0e5-48ff-bf3e-08f302b8b223}, ! Handle
  Carlsbad Cavern City Air Term Ann Clg 1% Condns Enth=>MDB, ! Name
  30.1,                                   ! Maximum Dry-Bulb Temperature {C}
  14.5,                                   ! Daily Dry-Bulb Temperature Range {deltaC}
  67300,                                  ! Humidity Indicating Conditions at Maximum Dry-Bulb {BasedOnField A3}
  90038,                                  ! Barometric Pressure {Pa}
  4.9,                                    ! Wind Speed {m/s}
  140,                                    ! Wind Direction {deg}
  0,                                      ! Sky Clearness
  0,                                      ! Rain Indicator
  0,                                      ! Snow Indicator
  21,                                     ! Day of Month
  7,                                      ! Month
  SummerDesignDay,                        ! Day Type
  0,                                      ! Daylight Saving Time Indicator
  Enthalpy,                               ! Humidity Indicating Type
  ,                                       ! Humidity Indicating Day Schedule Name
  DefaultMultipliers,                     ! Dry-Bulb Temperature Range Modifier Type
  ,                                       ! Dry-Bulb Temperature Range Modifier Schedule Name
  ASHRAETau,                              ! Solar Model Indicator
  ,                                       ! Beam Solar Day Schedule Name
  ,                                       ! Diffuse Solar Day Schedule Name
  0.494,                                  ! ASHRAE Taub {dimensionless}
  1.831;                                  ! ASHRAE Taud {dimensionless}

OS:ComponentData,
  {8c0bd417-0670-49c5-9eda-9a18959fa5e1}, ! Handle
  Component Data 1,                       ! Name
  {0b6d6283-9c74-408c-ad0c-356cf5cb7581}, ! UUID
  {8c7e8d23-1089-499c-a60a-ef64ce1230e0}, ! Version UUID
  1366309376,                             ! Creation Timestamp
  1366309376,                             ! Version Timestamp
  {39843160-c0e5-48ff-bf3e-08f302b8b223}; ! Name of Object 1

