
OS:Version,
  {e1b7a700-9856-44f8-a858-e395001905cc}, ! Handle
  0.9.3;                                  ! Version Identifier

OS:SizingPeriod:DesignDay,
  {1a9fa11f-24e1-45bd-b1ad-286ac1f92378}, ! Handle
  Lander Hunt Field Ann Hum_n 99.6% Condns DP=>MCDB, ! Name
  -22.3,                                  ! Maximum Dry-Bulb Temperature {C}
  0,                                      ! Daily Dry-Bulb Temperature Range {deltaC}
  -26.6,                                  ! Humidity Indicating Conditions at Maximum Dry-Bulb {BasedOnField A3}
  82562,                                  ! Barometric Pressure {Pa}
  1.1,                                    ! Wind Speed {m/s}
  140,                                    ! Wind Direction {deg}
  0,                                      ! Sky Clearness
  0,                                      ! Rain Indicator
  0,                                      ! Snow Indicator
  21,                                     ! Day of Month
  12,                                     ! Month
  WinterDesignDay,                        ! Day Type
  0,                                      ! Daylight Saving Time Indicator
  Dewpoint,                               ! Humidity Indicating Type
  ,                                       ! Humidity Indicating Day Schedule Name
  DefaultMultipliers,                     ! Dry-Bulb Temperature Range Modifier Type
  ,                                       ! Dry-Bulb Temperature Range Modifier Schedule Name
  ASHRAEClearSky;                         ! Solar Model Indicator

OS:ComponentData,
  {73c3dd2f-ca24-4ef4-94e2-b5ac59911b41}, ! Handle
  Component Data 1,                       ! Name
  {aa628c72-45b0-4e0f-9b5f-022c71875db4}, ! UUID
  {aa6a8878-e701-49d1-afb5-603dc0a61d8d}, ! Version UUID
  1366311749,                             ! Creation Timestamp
  1366311749,                             ! Version Timestamp
  {1a9fa11f-24e1-45bd-b1ad-286ac1f92378}; ! Name of Object 1

