
OS:Version,
  {71e6c1fe-df87-4bd1-9c58-a313621ae991}, ! Handle
  0.9.3;                                  ! Version Identifier

OS:SizingPeriod:DesignDay,
  {21842fd4-5cd5-4cf3-b14d-c16e7e0a211b}, ! Handle
  Elko Ann Hum_n 99% Condns DP=>MCDB,     ! Name
  -15.2,                                  ! Maximum Dry-Bulb Temperature {C}
  0,                                      ! Daily Dry-Bulb Temperature Range {deltaC}
  -19.9,                                  ! Humidity Indicating Conditions at Maximum Dry-Bulb {BasedOnField A3}
  83884,                                  ! Barometric Pressure {Pa}
  1.6,                                    ! Wind Speed {m/s}
  90,                                     ! Wind Direction {deg}
  0,                                      ! Sky Clearness
  0,                                      ! Rain Indicator
  0,                                      ! Snow Indicator
  21,                                     ! Day of Month
  1,                                      ! Month
  WinterDesignDay,                        ! Day Type
  0,                                      ! Daylight Saving Time Indicator
  Dewpoint,                               ! Humidity Indicating Type
  ,                                       ! Humidity Indicating Day Schedule Name
  DefaultMultipliers,                     ! Dry-Bulb Temperature Range Modifier Type
  ,                                       ! Dry-Bulb Temperature Range Modifier Schedule Name
  ASHRAEClearSky;                         ! Solar Model Indicator

OS:ComponentData,
  {b8020b8e-62e7-4d7e-8667-33534d0c468e}, ! Handle
  Component Data 1,                       ! Name
  {cc988642-4b5c-4cbb-80f4-e5c0dc745049}, ! UUID
  {d4754b63-3909-4a3c-9070-4dbf4d0aac89}, ! Version UUID
  1366309462,                             ! Creation Timestamp
  1366309462,                             ! Version Timestamp
  {21842fd4-5cd5-4cf3-b14d-c16e7e0a211b}; ! Name of Object 1

