
OS:Version,
  {bf429373-ee99-4dab-b7c6-695751845b99}, ! Handle
  0.9.3;                                  ! Version Identifier

OS:SizingPeriod:DesignDay,
  {7a8b564b-9484-42bd-a92c-67b6afe63464}, ! Handle
  International Falls Intl Ap Ann Clg 2% Condns DP=>MDB, ! Name
  22.9,                                   ! Maximum Dry-Bulb Temperature {C}
  12.4,                                   ! Daily Dry-Bulb Temperature Range {deltaC}
  18.6,                                   ! Humidity Indicating Conditions at Maximum Dry-Bulb {BasedOnField A3}
  97086,                                  ! Barometric Pressure {Pa}
  4.7,                                    ! Wind Speed {m/s}
  200,                                    ! Wind Direction {deg}
  0,                                      ! Sky Clearness
  0,                                      ! Rain Indicator
  0,                                      ! Snow Indicator
  21,                                     ! Day of Month
  7,                                      ! Month
  SummerDesignDay,                        ! Day Type
  0,                                      ! Daylight Saving Time Indicator
  Dewpoint,                               ! Humidity Indicating Type
  ,                                       ! Humidity Indicating Day Schedule Name
  DefaultMultipliers,                     ! Dry-Bulb Temperature Range Modifier Type
  ,                                       ! Dry-Bulb Temperature Range Modifier Schedule Name
  ASHRAETau,                              ! Solar Model Indicator
  ,                                       ! Beam Solar Day Schedule Name
  ,                                       ! Diffuse Solar Day Schedule Name
  0.405,                                  ! ASHRAE Taub {dimensionless}
  2.2;                                    ! ASHRAE Taud {dimensionless}

OS:ComponentData,
  {a0832b79-0949-4145-bcc3-15973b0c0a54}, ! Handle
  Component Data 1,                       ! Name
  {5ce39b0a-f866-46d6-a0cb-53c5f879fb59}, ! UUID
  {95137440-f0a8-49e6-adf9-57ed481944d2}, ! Version UUID
  1366308278,                             ! Creation Timestamp
  1366308278,                             ! Version Timestamp
  {7a8b564b-9484-42bd-a92c-67b6afe63464}; ! Name of Object 1

