
OS:Version,
  {8a2e56e7-d399-40c7-a3db-6553389d30dd}, ! Handle
  0.9.3;                                  ! Version Identifier

OS:SizingPeriod:DesignDay,
  {3f7d24ce-6406-412f-83f3-890862ea19dd}, ! Handle
  Ketchikan Intl Ap Ann Clg 1% Condns DP=>MDB, ! Name
  16.4,                                   ! Maximum Dry-Bulb Temperature {C}
  5.8,                                    ! Daily Dry-Bulb Temperature Range {deltaC}
  14.2,                                   ! Humidity Indicating Conditions at Maximum Dry-Bulb {BasedOnField A3}
  101049,                                 ! Barometric Pressure {Pa}
  4.6,                                    ! Wind Speed {m/s}
  320,                                    ! Wind Direction {deg}
  0,                                      ! Sky Clearness
  0,                                      ! Rain Indicator
  0,                                      ! Snow Indicator
  21,                                     ! Day of Month
  8,                                      ! Month
  SummerDesignDay,                        ! Day Type
  0,                                      ! Daylight Saving Time Indicator
  Dewpoint,                               ! Humidity Indicating Type
  ,                                       ! Humidity Indicating Day Schedule Name
  DefaultMultipliers,                     ! Dry-Bulb Temperature Range Modifier Type
  ,                                       ! Dry-Bulb Temperature Range Modifier Schedule Name
  ASHRAETau,                              ! Solar Model Indicator
  ,                                       ! Beam Solar Day Schedule Name
  ,                                       ! Diffuse Solar Day Schedule Name
  0.369,                                  ! ASHRAE Taub {dimensionless}
  2.37;                                   ! ASHRAE Taud {dimensionless}

OS:ComponentData,
  {eff887c8-d91c-42a7-bffe-0bdd257807e4}, ! Handle
  Component Data 1,                       ! Name
  {b72c975a-a446-4e96-893a-284d790a215c}, ! UUID
  {e61ad564-778f-4216-a851-fbbcfd8dc78b}, ! Version UUID
  1366305355,                             ! Creation Timestamp
  1366305355,                             ! Version Timestamp
  {3f7d24ce-6406-412f-83f3-890862ea19dd}; ! Name of Object 1

