
OS:Version,
  {7c187445-c9d7-4841-97fa-4ef99ec84459}, ! Handle
  0.9.3;                                  ! Version Identifier

OS:SizingPeriod:DesignDay,
  {53b01021-d137-4357-be56-f913dbdd1353}, ! Handle
  Key West Intl Arpt Ann Clg 2% Condns DB=>MWB, ! Name
  31.7,                                   ! Maximum Dry-Bulb Temperature {C}
  5.1,                                    ! Daily Dry-Bulb Temperature Range {deltaC}
  26.1,                                   ! Humidity Indicating Conditions at Maximum Dry-Bulb {BasedOnField A3}
  101313,                                 ! Barometric Pressure {Pa}
  4,                                      ! Wind Speed {m/s}
  150,                                    ! Wind Direction {deg}
  0,                                      ! Sky Clearness
  0,                                      ! Rain Indicator
  0,                                      ! Snow Indicator
  21,                                     ! Day of Month
  8,                                      ! Month
  SummerDesignDay,                        ! Day Type
  0,                                      ! Daylight Saving Time Indicator
  Wetbulb,                                ! Humidity Indicating Type
  ,                                       ! Humidity Indicating Day Schedule Name
  DefaultMultipliers,                     ! Dry-Bulb Temperature Range Modifier Type
  ,                                       ! Dry-Bulb Temperature Range Modifier Schedule Name
  ASHRAETau,                              ! Solar Model Indicator
  ,                                       ! Beam Solar Day Schedule Name
  ,                                       ! Diffuse Solar Day Schedule Name
  0.461,                                  ! ASHRAE Taub {dimensionless}
  2.194;                                  ! ASHRAE Taud {dimensionless}

OS:ComponentData,
  {a28c7951-e851-47c9-bcc3-6d276a5d0eed}, ! Handle
  Component Data 1,                       ! Name
  {5abaa1fd-9815-4b73-8109-c7a00a56c8a0}, ! UUID
  {ed17236b-34ca-44ad-8fce-e3cd79f02705}, ! Version UUID
  1366306836,                             ! Creation Timestamp
  1366306836,                             ! Version Timestamp
  {53b01021-d137-4357-be56-f913dbdd1353}; ! Name of Object 1

