
OS:Version,
  {00aefc86-cae8-4f90-8d80-073b3fc93073}, ! Handle
  0.9.3;                                  ! Version Identifier

OS:SizingPeriod:DesignDay,
  {74037a67-e43d-4736-8c89-8574e55a052d}, ! Handle
  CASPER Ann Htg Wind 99.6% Condns WS=>MCDB, ! Name
  1.6,                                    ! Maximum Dry-Bulb Temperature {C}
  0,                                      ! Daily Dry-Bulb Temperature Range {deltaC}
  1.6,                                    ! Humidity Indicating Conditions at Maximum Dry-Bulb {BasedOnField A3}
  83400,                                  ! Barometric Pressure {Pa}
  17.3,                                   ! Wind Speed {m/s}
  40,                                     ! Wind Direction {deg}
  0,                                      ! Sky Clearness
  0,                                      ! Rain Indicator
  0,                                      ! Snow Indicator
  21,                                     ! Day of Month
  12,                                     ! Month
  WinterDesignDay,                        ! Day Type
  0,                                      ! Daylight Saving Time Indicator
  Wetbulb,                                ! Humidity Indicating Type
  ,                                       ! Humidity Indicating Day Schedule Name
  DefaultMultipliers,                     ! Dry-Bulb Temperature Range Modifier Type
  ,                                       ! Dry-Bulb Temperature Range Modifier Schedule Name
  ASHRAEClearSky;                         ! Solar Model Indicator

OS:ComponentData,
  {827c338b-b904-4a63-b7e7-62858c4d9e53}, ! Handle
  Component Data 1,                       ! Name
  {75faedea-9541-4410-8e93-f5b2d5c6204a}, ! UUID
  {96109bca-b0bc-42a1-b76a-a10fcbe997cf}, ! Version UUID
  1366311694,                             ! Creation Timestamp
  1366311694,                             ! Version Timestamp
  {74037a67-e43d-4736-8c89-8574e55a052d}; ! Name of Object 1

