
OS:Version,
  {630cedc6-a65d-4d14-8f8d-2519f48c8c5e}, ! Handle
  0.9.3;                                  ! Version Identifier

OS:SizingPeriod:DesignDay,
  {ad110690-aae8-4625-b6a1-001ad89f79ec}, ! Handle
  EAGLE Ann Hum_n 99% Condns DP=>MCDB,    ! Name
  -18.2,                                  ! Maximum Dry-Bulb Temperature {C}
  0,                                      ! Daily Dry-Bulb Temperature Range {deltaC}
  -22.2,                                  ! Humidity Indicating Conditions at Maximum Dry-Bulb {BasedOnField A3}
  79643,                                  ! Barometric Pressure {Pa}
  0.7,                                    ! Wind Speed {m/s}
  120,                                    ! Wind Direction {deg}
  0,                                      ! Sky Clearness
  0,                                      ! Rain Indicator
  0,                                      ! Snow Indicator
  21,                                     ! Day of Month
  1,                                      ! Month
  WinterDesignDay,                        ! Day Type
  0,                                      ! Daylight Saving Time Indicator
  Dewpoint,                               ! Humidity Indicating Type
  ,                                       ! Humidity Indicating Day Schedule Name
  DefaultMultipliers,                     ! Dry-Bulb Temperature Range Modifier Type
  ,                                       ! Dry-Bulb Temperature Range Modifier Schedule Name
  ASHRAEClearSky;                         ! Solar Model Indicator

OS:ComponentData,
  {c7e2e105-686f-4071-a9f3-910c1fecaf3f}, ! Handle
  Component Data 1,                       ! Name
  {f22f63de-027f-4611-8a0b-aa167a91d150}, ! UUID
  {82e0a373-38a5-4eac-9778-7cebaebd9240}, ! Version UUID
  1366306683,                             ! Creation Timestamp
  1366306683,                             ! Version Timestamp
  {ad110690-aae8-4625-b6a1-001ad89f79ec}; ! Name of Object 1

