
OS:Version,
  {114e4665-c9ca-4180-be8e-3589ba2a60e4}, ! Handle
  0.9.3;                                  ! Version Identifier

OS:SizingPeriod:DesignDay,
  {abc4a086-960d-4edb-8cac-b6d3d2e632ff}, ! Handle
  Juneau Ann Clg 2% Condns DP=>MDB,       ! Name
  15.3,                                   ! Maximum Dry-Bulb Temperature {C}
  7.3,                                    ! Daily Dry-Bulb Temperature Range {deltaC}
  12.7,                                   ! Humidity Indicating Conditions at Maximum Dry-Bulb {BasedOnField A3}
  101289,                                 ! Barometric Pressure {Pa}
  3.7,                                    ! Wind Speed {m/s}
  230,                                    ! Wind Direction {deg}
  0,                                      ! Sky Clearness
  0,                                      ! Rain Indicator
  0,                                      ! Snow Indicator
  21,                                     ! Day of Month
  7,                                      ! Month
  SummerDesignDay,                        ! Day Type
  0,                                      ! Daylight Saving Time Indicator
  Dewpoint,                               ! Humidity Indicating Type
  ,                                       ! Humidity Indicating Day Schedule Name
  DefaultMultipliers,                     ! Dry-Bulb Temperature Range Modifier Type
  ,                                       ! Dry-Bulb Temperature Range Modifier Schedule Name
  ASHRAETau,                              ! Solar Model Indicator
  ,                                       ! Beam Solar Day Schedule Name
  ,                                       ! Diffuse Solar Day Schedule Name
  0.43,                                   ! ASHRAE Taub {dimensionless}
  1.968;                                  ! ASHRAE Taud {dimensionless}

OS:ComponentData,
  {327f0a35-f7fe-4451-818b-938138799c4a}, ! Handle
  Component Data 1,                       ! Name
  {944dc8f1-4693-4672-a061-9cb3b74968c1}, ! UUID
  {6cb25ceb-7c49-40ab-a182-0a473e48fdb0}, ! Version UUID
  1366305333,                             ! Creation Timestamp
  1366305333,                             ! Version Timestamp
  {abc4a086-960d-4edb-8cac-b6d3d2e632ff}; ! Name of Object 1

