
OS:Version,
  {34d6e369-b697-4cd1-9f37-96fe11592223}, ! Handle
  0.9.3;                                  ! Version Identifier

OS:SizingPeriod:DesignDay,
  {4003d346-6362-4525-9bcb-3ab4aca7dcc3}, ! Handle
  Lewiston Nez Perce Cnty Ap Ann Hum_n 99.6% Condns DP=>MCDB, ! Name
  -11.2,                                  ! Maximum Dry-Bulb Temperature {C}
  0,                                      ! Daily Dry-Bulb Temperature Range {deltaC}
  -17.2,                                  ! Humidity Indicating Conditions at Maximum Dry-Bulb {BasedOnField A3}
  96173,                                  ! Barometric Pressure {Pa}
  2,                                      ! Wind Speed {m/s}
  270,                                    ! Wind Direction {deg}
  0,                                      ! Sky Clearness
  0,                                      ! Rain Indicator
  0,                                      ! Snow Indicator
  21,                                     ! Day of Month
  12,                                     ! Month
  WinterDesignDay,                        ! Day Type
  0,                                      ! Daylight Saving Time Indicator
  Dewpoint,                               ! Humidity Indicating Type
  ,                                       ! Humidity Indicating Day Schedule Name
  DefaultMultipliers,                     ! Dry-Bulb Temperature Range Modifier Type
  ,                                       ! Dry-Bulb Temperature Range Modifier Schedule Name
  ASHRAEClearSky;                         ! Solar Model Indicator

OS:ComponentData,
  {1e915288-42b9-4ceb-9d42-0aace95f9a6e}, ! Handle
  Component Data 1,                       ! Name
  {9ae3c447-8571-40d9-bf32-38040b0383ce}, ! UUID
  {c6db1c81-fcbe-4d05-8db2-4bc5a3316fb7}, ! Version UUID
  1366307291,                             ! Creation Timestamp
  1366307291,                             ! Version Timestamp
  {4003d346-6362-4525-9bcb-3ab4aca7dcc3}; ! Name of Object 1

