
OS:Version,
  {ecd82bbe-cc26-4f26-adc6-9b6b2d8beb3f}, ! Handle
  0.9.3;                                  ! Version Identifier

OS:SizingPeriod:DesignDay,
  {d60bc43e-72b1-4c75-821d-b14561bfe5ba}, ! Handle
  HARTFORD Ann Hum_n 99.6% Condns DP=>MCDB, ! Name
  -10.9,                                  ! Maximum Dry-Bulb Temperature {C}
  0,                                      ! Daily Dry-Bulb Temperature Range {deltaC}
  -22.4,                                  ! Humidity Indicating Conditions at Maximum Dry-Bulb {BasedOnField A3}
  100666,                                 ! Barometric Pressure {Pa}
  4,                                      ! Wind Speed {m/s}
  320,                                    ! Wind Direction {deg}
  0,                                      ! Sky Clearness
  0,                                      ! Rain Indicator
  0,                                      ! Snow Indicator
  21,                                     ! Day of Month
  1,                                      ! Month
  WinterDesignDay,                        ! Day Type
  0,                                      ! Daylight Saving Time Indicator
  Dewpoint,                               ! Humidity Indicating Type
  ,                                       ! Humidity Indicating Day Schedule Name
  DefaultMultipliers,                     ! Dry-Bulb Temperature Range Modifier Type
  ,                                       ! Dry-Bulb Temperature Range Modifier Schedule Name
  ASHRAEClearSky;                         ! Solar Model Indicator

OS:ComponentData,
  {f8c15b76-d196-4de2-a7c3-a7068c2f5573}, ! Handle
  Component Data 1,                       ! Name
  {bc5ad8ba-e4f4-4f94-80ac-923302758489}, ! UUID
  {0b23f00e-59bc-4d0f-b03c-3068600c8ee6}, ! Version UUID
  1366306762,                             ! Creation Timestamp
  1366306762,                             ! Version Timestamp
  {d60bc43e-72b1-4c75-821d-b14561bfe5ba}; ! Name of Object 1

