
OS:Version,
  {a36b386d-d9c7-4307-81e3-a5c2a4f6b418}, ! Handle
  0.9.3;                                  ! Version Identifier

OS:SizingPeriod:DesignDay,
  {6768a0e3-7193-4464-96ae-007c56a5a812}, ! Handle
  COLUMBIA Ann Clg .4% Condns WB=>MDB,    ! Name
  32.2,                                   ! Maximum Dry-Bulb Temperature {C}
  11.1,                                   ! Daily Dry-Bulb Temperature Range {deltaC}
  25.8,                                   ! Humidity Indicating Conditions at Maximum Dry-Bulb {BasedOnField A3}
  100499,                                 ! Barometric Pressure {Pa}
  3.9,                                    ! Wind Speed {m/s}
  240,                                    ! Wind Direction {deg}
  0,                                      ! Sky Clearness
  0,                                      ! Rain Indicator
  0,                                      ! Snow Indicator
  21,                                     ! Day of Month
  7,                                      ! Month
  SummerDesignDay,                        ! Day Type
  0,                                      ! Daylight Saving Time Indicator
  Wetbulb,                                ! Humidity Indicating Type
  ,                                       ! Humidity Indicating Day Schedule Name
  DefaultMultipliers,                     ! Dry-Bulb Temperature Range Modifier Type
  ,                                       ! Dry-Bulb Temperature Range Modifier Schedule Name
  ASHRAETau,                              ! Solar Model Indicator
  ,                                       ! Beam Solar Day Schedule Name
  ,                                       ! Diffuse Solar Day Schedule Name
  0.566,                                  ! ASHRAE Taub {dimensionless}
  1.764;                                  ! ASHRAE Taud {dimensionless}

OS:ComponentData,
  {27a94ca4-d15e-4f7b-b72f-a32aba34be46}, ! Handle
  Component Data 1,                       ! Name
  {cedc6ddd-7c96-4f91-b7a4-679f18152864}, ! UUID
  {1fa12d52-a193-403f-8d9e-cfd7186f8a7e}, ! Version UUID
  1366310336,                             ! Creation Timestamp
  1366310336,                             ! Version Timestamp
  {6768a0e3-7193-4464-96ae-007c56a5a812}; ! Name of Object 1

