
OS:Version,
  {4f14deb0-d8d4-4fc1-8117-f18677cb4e73}, ! Handle
  0.9.3;                                  ! Version Identifier

OS:SizingPeriod:DesignDay,
  {6c25c428-cb2c-4ce8-b051-293ed60850d9}, ! Handle
  Fremont Muni Arpt Ann Htg Wind 99.6% Condns WS=>MCDB, ! Name
  -8.4,                                   ! Maximum Dry-Bulb Temperature {C}
  0,                                      ! Daily Dry-Bulb Temperature Range {deltaC}
  -8.4,                                   ! Humidity Indicating Conditions at Maximum Dry-Bulb {BasedOnField A3}
  96854,                                  ! Barometric Pressure {Pa}
  14.3,                                   ! Wind Speed {m/s}
  310,                                    ! Wind Direction {deg}
  0,                                      ! Sky Clearness
  0,                                      ! Rain Indicator
  0,                                      ! Snow Indicator
  21,                                     ! Day of Month
  1,                                      ! Month
  WinterDesignDay,                        ! Day Type
  0,                                      ! Daylight Saving Time Indicator
  Wetbulb,                                ! Humidity Indicating Type
  ,                                       ! Humidity Indicating Day Schedule Name
  DefaultMultipliers,                     ! Dry-Bulb Temperature Range Modifier Type
  ,                                       ! Dry-Bulb Temperature Range Modifier Schedule Name
  ASHRAEClearSky;                         ! Solar Model Indicator

OS:ComponentData,
  {8ff4fbe0-d884-4687-8bfb-07b1109b0fe2}, ! Handle
  Component Data 1,                       ! Name
  {1f6a92a1-fb2f-4a98-9366-31aa7a79f9dd}, ! UUID
  {462ea23a-483c-4786-a3b2-d1acdf2278fe}, ! Version UUID
  1366309103,                             ! Creation Timestamp
  1366309103,                             ! Version Timestamp
  {6c25c428-cb2c-4ce8-b051-293ed60850d9}; ! Name of Object 1

