
OS:Version,
  {4d15bcc7-400e-40f0-abc4-5597659dc5e9}, ! Handle
  0.9.3;                                  ! Version Identifier

OS:SizingPeriod:DesignDay,
  {53d440be-c6c4-4aa9-a3a6-bad94ae32d9f}, ! Handle
  Albany County Ap Ann Clg 2% Condns DP=>MDB, ! Name
  25.1,                                   ! Maximum Dry-Bulb Temperature {C}
  11.1,                                   ! Daily Dry-Bulb Temperature Range {deltaC}
  21.1,                                   ! Humidity Indicating Conditions at Maximum Dry-Bulb {BasedOnField A3}
  100320,                                 ! Barometric Pressure {Pa}
  4.4,                                    ! Wind Speed {m/s}
  180,                                    ! Wind Direction {deg}
  0,                                      ! Sky Clearness
  0,                                      ! Rain Indicator
  0,                                      ! Snow Indicator
  21,                                     ! Day of Month
  7,                                      ! Month
  SummerDesignDay,                        ! Day Type
  0,                                      ! Daylight Saving Time Indicator
  Dewpoint,                               ! Humidity Indicating Type
  ,                                       ! Humidity Indicating Day Schedule Name
  DefaultMultipliers,                     ! Dry-Bulb Temperature Range Modifier Type
  ,                                       ! Dry-Bulb Temperature Range Modifier Schedule Name
  ASHRAETau,                              ! Solar Model Indicator
  ,                                       ! Beam Solar Day Schedule Name
  ,                                       ! Diffuse Solar Day Schedule Name
  0.49,                                   ! ASHRAE Taub {dimensionless}
  1.923;                                  ! ASHRAE Taud {dimensionless}

OS:ComponentData,
  {38626ebb-2e22-478d-906c-7793e278552d}, ! Handle
  Component Data 1,                       ! Name
  {41bd1cff-1c5a-44dc-9712-f816bb2b7925}, ! UUID
  {ca479010-753c-4257-a413-cebdb9cd3348}, ! Version UUID
  1366309586,                             ! Creation Timestamp
  1366309586,                             ! Version Timestamp
  {53d440be-c6c4-4aa9-a3a6-bad94ae32d9f}; ! Name of Object 1

