
OS:Version,
  {1d181077-2301-499f-bfd9-6b732eb7e039}, ! Handle
  0.9.3;                                  ! Version Identifier

OS:SizingPeriod:DesignDay,
  {f0f1a2ef-f9a2-4388-94ed-236c34c1b479}, ! Handle
  Los Angeles Intl Arpt Ann Clg 2% Condns Enth=>MDB, ! Name
  23.7,                                   ! Maximum Dry-Bulb Temperature {C}
  6,                                      ! Daily Dry-Bulb Temperature Range {deltaC}
  57400,                                  ! Humidity Indicating Conditions at Maximum Dry-Bulb {BasedOnField A3}
  100965,                                 ! Barometric Pressure {Pa}
  4.1,                                    ! Wind Speed {m/s}
  250,                                    ! Wind Direction {deg}
  0,                                      ! Sky Clearness
  0,                                      ! Rain Indicator
  0,                                      ! Snow Indicator
  21,                                     ! Day of Month
  8,                                      ! Month
  SummerDesignDay,                        ! Day Type
  0,                                      ! Daylight Saving Time Indicator
  Enthalpy,                               ! Humidity Indicating Type
  ,                                       ! Humidity Indicating Day Schedule Name
  DefaultMultipliers,                     ! Dry-Bulb Temperature Range Modifier Type
  ,                                       ! Dry-Bulb Temperature Range Modifier Schedule Name
  ASHRAETau,                              ! Solar Model Indicator
  ,                                       ! Beam Solar Day Schedule Name
  ,                                       ! Diffuse Solar Day Schedule Name
  0.44,                                   ! ASHRAE Taub {dimensionless}
  2.108;                                  ! ASHRAE Taud {dimensionless}

OS:ComponentData,
  {7d9a74b3-2e41-4381-a388-1d002c4e797b}, ! Handle
  Component Data 1,                       ! Name
  {bc8b1bc9-205c-4339-a475-9062937677dc}, ! UUID
  {f0ce5121-4834-4454-95eb-8bee5bb95a3d}, ! Version UUID
  1366306484,                             ! Creation Timestamp
  1366306484,                             ! Version Timestamp
  {f0f1a2ef-f9a2-4388-94ed-236c34c1b479}; ! Name of Object 1

