
OS:Version,
  {ba582384-ca7e-4fb9-885c-1568c6adaf4c}, ! Handle
  0.9.3;                                  ! Version Identifier

OS:SizingPeriod:DesignDay,
  {b4f1fa97-36b4-49b9-a156-efd0a0b148af}, ! Handle
  CHARLESTON Ann Htg 99.6% Condns DB,     ! Name
  -13,                                    ! Maximum Dry-Bulb Temperature {C}
  0,                                      ! Daily Dry-Bulb Temperature Range {deltaC}
  -13,                                    ! Humidity Indicating Conditions at Maximum Dry-Bulb {BasedOnField A3}
  97889,                                  ! Barometric Pressure {Pa}
  1.9,                                    ! Wind Speed {m/s}
  240,                                    ! Wind Direction {deg}
  0,                                      ! Sky Clearness
  0,                                      ! Rain Indicator
  0,                                      ! Snow Indicator
  21,                                     ! Day of Month
  1,                                      ! Month
  WinterDesignDay,                        ! Day Type
  0,                                      ! Daylight Saving Time Indicator
  Wetbulb,                                ! Humidity Indicating Type
  ,                                       ! Humidity Indicating Day Schedule Name
  DefaultMultipliers,                     ! Dry-Bulb Temperature Range Modifier Type
  ,                                       ! Dry-Bulb Temperature Range Modifier Schedule Name
  ASHRAEClearSky;                         ! Solar Model Indicator

OS:ComponentData,
  {766b699a-2f82-4886-993c-84f1ede777d7}, ! Handle
  Component Data 1,                       ! Name
  {502c2b4e-004d-4195-bbeb-848a1f1569d3}, ! UUID
  {2bc81085-3402-492b-b61b-cdef12b5a5a4}, ! Version UUID
  1366311629,                             ! Creation Timestamp
  1366311629,                             ! Version Timestamp
  {b4f1fa97-36b4-49b9-a156-efd0a0b148af}; ! Name of Object 1

