
OS:Version,
  {d250e1f0-4d80-44e5-a9cf-46187ad9aed7}, ! Handle
  0.9.3;                                  ! Version Identifier

OS:SizingPeriod:DesignDay,
  {280047fd-d810-43cb-9c2a-c61094040364}, ! Handle
  Cleveland Hopkins Intl Ap Ann Clg 1% Condns DB=>MWB, ! Name
  30.4,                                   ! Maximum Dry-Bulb Temperature {C}
  9.8,                                    ! Daily Dry-Bulb Temperature Range {deltaC}
  22.5,                                   ! Humidity Indicating Conditions at Maximum Dry-Bulb {BasedOnField A3}
  98534,                                  ! Barometric Pressure {Pa}
  5,                                      ! Wind Speed {m/s}
  230,                                    ! Wind Direction {deg}
  0,                                      ! Sky Clearness
  0,                                      ! Rain Indicator
  0,                                      ! Snow Indicator
  21,                                     ! Day of Month
  7,                                      ! Month
  SummerDesignDay,                        ! Day Type
  0,                                      ! Daylight Saving Time Indicator
  Wetbulb,                                ! Humidity Indicating Type
  ,                                       ! Humidity Indicating Day Schedule Name
  DefaultMultipliers,                     ! Dry-Bulb Temperature Range Modifier Type
  ,                                       ! Dry-Bulb Temperature Range Modifier Schedule Name
  ASHRAETau,                              ! Solar Model Indicator
  ,                                       ! Beam Solar Day Schedule Name
  ,                                       ! Diffuse Solar Day Schedule Name
  0.471,                                  ! ASHRAE Taub {dimensionless}
  1.988;                                  ! ASHRAE Taud {dimensionless}

OS:ComponentData,
  {79d72350-188a-4277-bafa-d6d61f9cba30}, ! Handle
  Component Data 1,                       ! Name
  {a85e3ca6-0076-476c-aac1-1ba276fb9f9a}, ! UUID
  {e9092ec0-cfd5-4041-936d-be0acf99eb82}, ! Version UUID
  1366309781,                             ! Creation Timestamp
  1366309781,                             ! Version Timestamp
  {280047fd-d810-43cb-9c2a-c61094040364}; ! Name of Object 1

