
OS:Version,
  {2a58e43e-3efa-4051-81d8-cf9ce251667f}, ! Handle
  0.9.3;                                  ! Version Identifier

OS:SizingPeriod:DesignDay,
  {544ae5e5-3cb0-490f-a8f2-8bf3e52ac44f}, ! Handle
  Eagle Ann Hum_n 99.6% Condns DP=>MCDB,  ! Name
  -21.9,                                  ! Maximum Dry-Bulb Temperature {C}
  0,                                      ! Daily Dry-Bulb Temperature Range {deltaC}
  -25.9,                                  ! Humidity Indicating Conditions at Maximum Dry-Bulb {BasedOnField A3}
  79564,                                  ! Barometric Pressure {Pa}
  0.7,                                    ! Wind Speed {m/s}
  120,                                    ! Wind Direction {deg}
  0,                                      ! Sky Clearness
  0,                                      ! Rain Indicator
  0,                                      ! Snow Indicator
  21,                                     ! Day of Month
  1,                                      ! Month
  WinterDesignDay,                        ! Day Type
  0,                                      ! Daylight Saving Time Indicator
  Dewpoint,                               ! Humidity Indicating Type
  ,                                       ! Humidity Indicating Day Schedule Name
  DefaultMultipliers,                     ! Dry-Bulb Temperature Range Modifier Type
  ,                                       ! Dry-Bulb Temperature Range Modifier Schedule Name
  ASHRAEClearSky;                         ! Solar Model Indicator

OS:ComponentData,
  {8277be34-c617-4525-ace4-fe71ee0544f8}, ! Handle
  Component Data 1,                       ! Name
  {5f069226-bd28-4c5d-bd97-34399037905e}, ! UUID
  {94989978-0919-4c34-b131-ca8021435724}, ! Version UUID
  1366306685,                             ! Creation Timestamp
  1366306685,                             ! Version Timestamp
  {544ae5e5-3cb0-490f-a8f2-8bf3e52ac44f}; ! Name of Object 1

