
OS:Version,
  {c09af086-b9d7-460b-b522-ca0f6ef34e82}, ! Handle
  0.9.3;                                  ! Version Identifier

OS:SizingPeriod:DesignDay,
  {53cd5631-1806-4b5d-ba25-e29040aff59a}, ! Handle
  Baudette International Ap Ann Clg 2% Condns WB=>MDB, ! Name
  25,                                     ! Maximum Dry-Bulb Temperature {C}
  11.5,                                   ! Daily Dry-Bulb Temperature Range {deltaC}
  20.6,                                   ! Humidity Indicating Conditions at Maximum Dry-Bulb {BasedOnField A3}
  97423,                                  ! Barometric Pressure {Pa}
  5,                                      ! Wind Speed {m/s}
  200,                                    ! Wind Direction {deg}
  0,                                      ! Sky Clearness
  0,                                      ! Rain Indicator
  0,                                      ! Snow Indicator
  21,                                     ! Day of Month
  7,                                      ! Month
  SummerDesignDay,                        ! Day Type
  0,                                      ! Daylight Saving Time Indicator
  Wetbulb,                                ! Humidity Indicating Type
  ,                                       ! Humidity Indicating Day Schedule Name
  DefaultMultipliers,                     ! Dry-Bulb Temperature Range Modifier Type
  ,                                       ! Dry-Bulb Temperature Range Modifier Schedule Name
  ASHRAETau,                              ! Solar Model Indicator
  ,                                       ! Beam Solar Day Schedule Name
  ,                                       ! Diffuse Solar Day Schedule Name
  0.397,                                  ! ASHRAE Taub {dimensionless}
  2.236;                                  ! ASHRAE Taud {dimensionless}

OS:ComponentData,
  {6054b677-a035-4b36-904a-78747f3698a2}, ! Handle
  Component Data 1,                       ! Name
  {1603dac5-1357-43c0-866a-b2f842b76853}, ! UUID
  {135b9640-c74f-482f-b800-ed0dd9905d3b}, ! Version UUID
  1366308154,                             ! Creation Timestamp
  1366308154,                             ! Version Timestamp
  {53cd5631-1806-4b5d-ba25-e29040aff59a}; ! Name of Object 1

