
OS:Version,
  {007f56f8-417b-4599-8b5f-f5245447ab2e}, ! Handle
  0.9.3;                                  ! Version Identifier

OS:SizingPeriod:DesignDay,
  {43cf09d8-c327-4118-86d7-d224e5784d1d}, ! Handle
  ASHEVILLE Ann Clg 2% Condns WB=>MDB,    ! Name
  26.7,                                   ! Maximum Dry-Bulb Temperature {C}
  10.7,                                   ! Daily Dry-Bulb Temperature Range {deltaC}
  22.2,                                   ! Humidity Indicating Conditions at Maximum Dry-Bulb {BasedOnField A3}
  93632,                                  ! Barometric Pressure {Pa}
  3.8,                                    ! Wind Speed {m/s}
  340,                                    ! Wind Direction {deg}
  0,                                      ! Sky Clearness
  0,                                      ! Rain Indicator
  0,                                      ! Snow Indicator
  21,                                     ! Day of Month
  7,                                      ! Month
  SummerDesignDay,                        ! Day Type
  0,                                      ! Daylight Saving Time Indicator
  Wetbulb,                                ! Humidity Indicating Type
  ,                                       ! Humidity Indicating Day Schedule Name
  DefaultMultipliers,                     ! Dry-Bulb Temperature Range Modifier Type
  ,                                       ! Dry-Bulb Temperature Range Modifier Schedule Name
  ASHRAETau,                              ! Solar Model Indicator
  ,                                       ! Beam Solar Day Schedule Name
  ,                                       ! Diffuse Solar Day Schedule Name
  0.517,                                  ! ASHRAE Taub {dimensionless}
  1.849;                                  ! ASHRAE Taud {dimensionless}

OS:ComponentData,
  {551afb8f-2300-457b-8702-eae69fee4ce8}, ! Handle
  Component Data 1,                       ! Name
  {162d7ec6-5bcb-4037-b521-b4b083617112}, ! UUID
  {372529e9-7c45-4926-9228-f10fec5b26c2}, ! Version UUID
  1366308860,                             ! Creation Timestamp
  1366308860,                             ! Version Timestamp
  {43cf09d8-c327-4118-86d7-d224e5784d1d}; ! Name of Object 1

