
OS:Version,
  {eb8dfcc7-a235-4665-904c-a9a2fa169f30}, ! Handle
  0.9.3;                                  ! Version Identifier

OS:SizingPeriod:DesignDay,
  {70aacc4e-b782-459b-be73-1aa720adc734}, ! Handle
  Bristol Tri City Airport Ann Clg .4% Condns Enth=>MDB, ! Name
  29.4,                                   ! Maximum Dry-Bulb Temperature {C}
  10.8,                                   ! Daily Dry-Bulb Temperature Range {deltaC}
  73900,                                  ! Humidity Indicating Conditions at Maximum Dry-Bulb {BasedOnField A3}
  95954,                                  ! Barometric Pressure {Pa}
  3.2,                                    ! Wind Speed {m/s}
  250,                                    ! Wind Direction {deg}
  0,                                      ! Sky Clearness
  0,                                      ! Rain Indicator
  0,                                      ! Snow Indicator
  21,                                     ! Day of Month
  7,                                      ! Month
  SummerDesignDay,                        ! Day Type
  0,                                      ! Daylight Saving Time Indicator
  Enthalpy,                               ! Humidity Indicating Type
  ,                                       ! Humidity Indicating Day Schedule Name
  DefaultMultipliers,                     ! Dry-Bulb Temperature Range Modifier Type
  ,                                       ! Dry-Bulb Temperature Range Modifier Schedule Name
  ASHRAETau,                              ! Solar Model Indicator
  ,                                       ! Beam Solar Day Schedule Name
  ,                                       ! Diffuse Solar Day Schedule Name
  0.541,                                  ! ASHRAE Taub {dimensionless}
  1.782;                                  ! ASHRAE Taud {dimensionless}

OS:ComponentData,
  {07706ff6-9422-435f-adbc-836550de4c57}, ! Handle
  Component Data 1,                       ! Name
  {529998dc-1b9a-4a45-88bd-3cb1bd99f4ae}, ! UUID
  {db30137b-a77f-47eb-b8da-0712e933c094}, ! Version UUID
  1366310477,                             ! Creation Timestamp
  1366310477,                             ! Version Timestamp
  {70aacc4e-b782-459b-be73-1aa720adc734}; ! Name of Object 1

