
OS:Version,
  {321f8131-11ed-44ef-809a-77d34d7a3337}, ! Handle
  0.9.3;                                  ! Version Identifier

OS:SizingPeriod:DesignDay,
  {ae46de8b-c4fd-48b2-90a3-12902e4103ef}, ! Handle
  Del Rio/Intl Ap Ann Htg Wind 99.6% Condns WS=>MCDB, ! Name
  13.4,                                   ! Maximum Dry-Bulb Temperature {C}
  0,                                      ! Daily Dry-Bulb Temperature Range {deltaC}
  13.4,                                   ! Humidity Indicating Conditions at Maximum Dry-Bulb {BasedOnField A3}
  97458,                                  ! Barometric Pressure {Pa}
  11,                                     ! Wind Speed {m/s}
  310,                                    ! Wind Direction {deg}
  0,                                      ! Sky Clearness
  0,                                      ! Rain Indicator
  0,                                      ! Snow Indicator
  21,                                     ! Day of Month
  12,                                     ! Month
  WinterDesignDay,                        ! Day Type
  0,                                      ! Daylight Saving Time Indicator
  Wetbulb,                                ! Humidity Indicating Type
  ,                                       ! Humidity Indicating Day Schedule Name
  DefaultMultipliers,                     ! Dry-Bulb Temperature Range Modifier Type
  ,                                       ! Dry-Bulb Temperature Range Modifier Schedule Name
  ASHRAEClearSky;                         ! Solar Model Indicator

OS:ComponentData,
  {59962359-9785-4699-999f-081092d55175}, ! Handle
  Component Data 1,                       ! Name
  {a200749b-864b-432a-b06b-03a96ca2bf38}, ! UUID
  {d6958c01-3afe-4b1c-aefd-2c21ca2833c2}, ! Version UUID
  1366310671,                             ! Creation Timestamp
  1366310671,                             ! Version Timestamp
  {ae46de8b-c4fd-48b2-90a3-12902e4103ef}; ! Name of Object 1

