
OS:Version,
  {941f2971-ee96-4a1c-add1-2127655d9a05}, ! Handle
  0.9.3;                                  ! Version Identifier

OS:SizingPeriod:DesignDay,
  {f1cc2192-360c-4ce9-9b5d-1774c1f41424}, ! Handle
  Lovelock Ann Clg 1% Condns Enth=>MDB,   ! Name
  31.2,                                   ! Maximum Dry-Bulb Temperature {C}
  20.2,                                   ! Daily Dry-Bulb Temperature Range {deltaC}
  55000,                                  ! Humidity Indicating Conditions at Maximum Dry-Bulb {BasedOnField A3}
  87844,                                  ! Barometric Pressure {Pa}
  4.1,                                    ! Wind Speed {m/s}
  180,                                    ! Wind Direction {deg}
  0,                                      ! Sky Clearness
  0,                                      ! Rain Indicator
  0,                                      ! Snow Indicator
  21,                                     ! Day of Month
  7,                                      ! Month
  SummerDesignDay,                        ! Day Type
  0,                                      ! Daylight Saving Time Indicator
  Enthalpy,                               ! Humidity Indicating Type
  ,                                       ! Humidity Indicating Day Schedule Name
  DefaultMultipliers,                     ! Dry-Bulb Temperature Range Modifier Type
  ,                                       ! Dry-Bulb Temperature Range Modifier Schedule Name
  ASHRAETau,                              ! Solar Model Indicator
  ,                                       ! Beam Solar Day Schedule Name
  ,                                       ! Diffuse Solar Day Schedule Name
  0.427,                                  ! ASHRAE Taub {dimensionless}
  1.948;                                  ! ASHRAE Taud {dimensionless}

OS:ComponentData,
  {8e1c90c1-9691-489d-aa00-8c80dcf7bb7d}, ! Handle
  Component Data 1,                       ! Name
  {257094f7-037a-4ebb-b4fa-be7b56161191}, ! UUID
  {d2c5b981-e8d2-4f46-b7b2-ffc0cbd5774c}, ! Version UUID
  1366309513,                             ! Creation Timestamp
  1366309513,                             ! Version Timestamp
  {f1cc2192-360c-4ce9-9b5d-1774c1f41424}; ! Name of Object 1

