
OS:Version,
  {8e52fd3a-dc99-47a7-a524-2b62216f68ab}, ! Handle
  0.9.3;                                  ! Version Identifier

OS:SizingPeriod:DesignDay,
  {4dc6849d-5823-4253-a9bd-3ff07879c0b1}, ! Handle
  Casper Ann Htg 99.6% Condns DB,         ! Name
  -23.5,                                  ! Maximum Dry-Bulb Temperature {C}
  0,                                      ! Daily Dry-Bulb Temperature Range {deltaC}
  -23.5,                                  ! Humidity Indicating Conditions at Maximum Dry-Bulb {BasedOnField A3}
  83400,                                  ! Barometric Pressure {Pa}
  3.8,                                    ! Wind Speed {m/s}
  40,                                     ! Wind Direction {deg}
  0,                                      ! Sky Clearness
  0,                                      ! Rain Indicator
  0,                                      ! Snow Indicator
  21,                                     ! Day of Month
  12,                                     ! Month
  WinterDesignDay,                        ! Day Type
  0,                                      ! Daylight Saving Time Indicator
  Wetbulb,                                ! Humidity Indicating Type
  ,                                       ! Humidity Indicating Day Schedule Name
  DefaultMultipliers,                     ! Dry-Bulb Temperature Range Modifier Type
  ,                                       ! Dry-Bulb Temperature Range Modifier Schedule Name
  ASHRAEClearSky;                         ! Solar Model Indicator

OS:ComponentData,
  {9e403210-e52e-42cd-8948-d1f4293d54a7}, ! Handle
  Component Data 1,                       ! Name
  {480ca75b-e8c0-4da2-8273-a81c8927fe41}, ! UUID
  {73293ff2-cad1-42f9-8572-1930be88681f}, ! Version UUID
  1366311682,                             ! Creation Timestamp
  1366311682,                             ! Version Timestamp
  {4dc6849d-5823-4253-a9bd-3ff07879c0b1}; ! Name of Object 1

