
OS:Version,
  {f626c032-d297-429f-bd09-f6c194296d8b}, ! Handle
  0.9.3;                                  ! Version Identifier

OS:SizingPeriod:DesignDay,
  {a04c1c4d-2dd7-4b4a-9f95-84688cc64fca}, ! Handle
  Hartford/Brainard Fiel Ann Hum_n 99.6% Condns DP=>MCDB, ! Name
  -14,                                    ! Maximum Dry-Bulb Temperature {C}
  0,                                      ! Daily Dry-Bulb Temperature Range {deltaC}
  -24.2,                                  ! Humidity Indicating Conditions at Maximum Dry-Bulb {BasedOnField A3}
  101253,                                 ! Barometric Pressure {Pa}
  3.3,                                    ! Wind Speed {m/s}
  330,                                    ! Wind Direction {deg}
  0,                                      ! Sky Clearness
  0,                                      ! Rain Indicator
  0,                                      ! Snow Indicator
  21,                                     ! Day of Month
  1,                                      ! Month
  WinterDesignDay,                        ! Day Type
  0,                                      ! Daylight Saving Time Indicator
  Dewpoint,                               ! Humidity Indicating Type
  ,                                       ! Humidity Indicating Day Schedule Name
  DefaultMultipliers,                     ! Dry-Bulb Temperature Range Modifier Type
  ,                                       ! Dry-Bulb Temperature Range Modifier Schedule Name
  ASHRAEClearSky;                         ! Solar Model Indicator

OS:ComponentData,
  {9645da05-af1e-4f15-aa70-5b0e54bec531}, ! Handle
  Component Data 1,                       ! Name
  {627c0257-069b-4237-95ec-da6650cec603}, ! UUID
  {1b7fb694-283f-424b-b6d6-f4f4b87f8431}, ! Version UUID
  1366306753,                             ! Creation Timestamp
  1366306753,                             ! Version Timestamp
  {a04c1c4d-2dd7-4b4a-9f95-84688cc64fca}; ! Name of Object 1

