
OS:Version,
  {348b6332-2b60-49db-8c54-b461570ff800}, ! Handle
  0.9.3;                                  ! Version Identifier

OS:SizingPeriod:DesignDay,
  {374a185e-a4f8-482f-8b49-5cac2ec85f29}, ! Handle
  COLUMBUS Ann Hum_n 99.6% Condns DP=>MCDB, ! Name
  -14.8,                                  ! Maximum Dry-Bulb Temperature {C}
  0,                                      ! Daily Dry-Bulb Temperature Range {deltaC}
  -20.8,                                  ! Humidity Indicating Conditions at Maximum Dry-Bulb {BasedOnField A3}
  98311,                                  ! Barometric Pressure {Pa}
  3.6,                                    ! Wind Speed {m/s}
  260,                                    ! Wind Direction {deg}
  0,                                      ! Sky Clearness
  0,                                      ! Rain Indicator
  0,                                      ! Snow Indicator
  21,                                     ! Day of Month
  1,                                      ! Month
  WinterDesignDay,                        ! Day Type
  0,                                      ! Daylight Saving Time Indicator
  Dewpoint,                               ! Humidity Indicating Type
  ,                                       ! Humidity Indicating Day Schedule Name
  DefaultMultipliers,                     ! Dry-Bulb Temperature Range Modifier Type
  ,                                       ! Dry-Bulb Temperature Range Modifier Schedule Name
  ASHRAEClearSky;                         ! Solar Model Indicator

OS:ComponentData,
  {d099d80c-8198-4390-a801-27eaee53425e}, ! Handle
  Component Data 1,                       ! Name
  {fac948ee-7f46-48cb-aedf-49a1e02e31a0}, ! UUID
  {b89accae-665c-4a3f-82ed-390ef3629f46}, ! Version UUID
  1366309802,                             ! Creation Timestamp
  1366309802,                             ! Version Timestamp
  {374a185e-a4f8-482f-8b49-5cac2ec85f29}; ! Name of Object 1

