
OS:Version,
  {c35b6f36-20bb-4d2a-af59-dceca9751143}, ! Handle
  0.9.3;                                  ! Version Identifier

OS:SizingPeriod:DesignDay,
  {d87f54cc-2ed3-4526-9026-502aa7b88618}, ! Handle
  Bowling Green Warren Co Ap Ann Clg 2% Condns DP=>MDB, ! Name
  27.3,                                   ! Maximum Dry-Bulb Temperature {C}
  10.7,                                   ! Daily Dry-Bulb Temperature Range {deltaC}
  23,                                     ! Humidity Indicating Conditions at Maximum Dry-Bulb {BasedOnField A3}
  99406,                                  ! Barometric Pressure {Pa}
  3.8,                                    ! Wind Speed {m/s}
  240,                                    ! Wind Direction {deg}
  0,                                      ! Sky Clearness
  0,                                      ! Rain Indicator
  0,                                      ! Snow Indicator
  21,                                     ! Day of Month
  7,                                      ! Month
  SummerDesignDay,                        ! Day Type
  0,                                      ! Daylight Saving Time Indicator
  Dewpoint,                               ! Humidity Indicating Type
  ,                                       ! Humidity Indicating Day Schedule Name
  DefaultMultipliers,                     ! Dry-Bulb Temperature Range Modifier Type
  ,                                       ! Dry-Bulb Temperature Range Modifier Schedule Name
  ASHRAETau,                              ! Solar Model Indicator
  ,                                       ! Beam Solar Day Schedule Name
  ,                                       ! Diffuse Solar Day Schedule Name
  0.527,                                  ! ASHRAE Taub {dimensionless}
  1.838;                                  ! ASHRAE Taud {dimensionless}

OS:ComponentData,
  {562a244b-f015-43fa-b496-65c7d5840bc2}, ! Handle
  Component Data 1,                       ! Name
  {5b5e28c9-0cfa-47db-afaf-e9b66e5691c4}, ! UUID
  {a55e3c74-44a7-4231-9899-87c8e722ac68}, ! Version UUID
  1366307612,                             ! Creation Timestamp
  1366307612,                             ! Version Timestamp
  {d87f54cc-2ed3-4526-9026-502aa7b88618}; ! Name of Object 1

