
OS:Version,
  {b8559fd3-f7e1-450b-bdae-1613cdc41ef2}, ! Handle
  0.9.3;                                  ! Version Identifier

OS:SizingPeriod:DesignDay,
  {14443765-1a9f-4d58-a2f5-17c642398e6d}, ! Handle
  LITTLE_ROCK Ann Clg .4% Condns WB=>MDB, ! Name
  32.8,                                   ! Maximum Dry-Bulb Temperature {C}
  11.1,                                   ! Daily Dry-Bulb Temperature Range {deltaC}
  27.3,                                   ! Humidity Indicating Conditions at Maximum Dry-Bulb {BasedOnField A3}
  100356,                                 ! Barometric Pressure {Pa}
  3.5,                                    ! Wind Speed {m/s}
  190,                                    ! Wind Direction {deg}
  0,                                      ! Sky Clearness
  0,                                      ! Rain Indicator
  0,                                      ! Snow Indicator
  21,                                     ! Day of Month
  7,                                      ! Month
  SummerDesignDay,                        ! Day Type
  0,                                      ! Daylight Saving Time Indicator
  Wetbulb,                                ! Humidity Indicating Type
  ,                                       ! Humidity Indicating Day Schedule Name
  DefaultMultipliers,                     ! Dry-Bulb Temperature Range Modifier Type
  ,                                       ! Dry-Bulb Temperature Range Modifier Schedule Name
  ASHRAETau,                              ! Solar Model Indicator
  ,                                       ! Beam Solar Day Schedule Name
  ,                                       ! Diffuse Solar Day Schedule Name
  0.512,                                  ! ASHRAE Taub {dimensionless}
  1.909;                                  ! ASHRAE Taud {dimensionless}

OS:ComponentData,
  {9bf8e2a8-3ee3-4f51-974c-94415d3252f9}, ! Handle
  Component Data 1,                       ! Name
  {accc6b69-ff3b-42a4-a42f-4a58a5338afb}, ! UUID
  {2ab7e0c0-9789-4f59-a00f-199ea5477b59}, ! Version UUID
  1366306231,                             ! Creation Timestamp
  1366306231,                             ! Version Timestamp
  {14443765-1a9f-4d58-a2f5-17c642398e6d}; ! Name of Object 1

