
OS:Version,
  {1d546fd2-5bae-4d96-9d56-f5439a0746be}, ! Handle
  0.9.3;                                  ! Version Identifier

OS:SizingPeriod:DesignDay,
  {cf1fc527-0bde-44f0-8dca-aad9d84f0e5e}, ! Handle
  Crossville Memorial Ap Ann Hum_n 99.6% Condns DP=>MCDB, ! Name
  -9.1,                                   ! Maximum Dry-Bulb Temperature {C}
  0,                                      ! Daily Dry-Bulb Temperature Range {deltaC}
  -17.6,                                  ! Humidity Indicating Conditions at Maximum Dry-Bulb {BasedOnField A3}
  94674,                                  ! Barometric Pressure {Pa}
  2.4,                                    ! Wind Speed {m/s}
  300,                                    ! Wind Direction {deg}
  0,                                      ! Sky Clearness
  0,                                      ! Rain Indicator
  0,                                      ! Snow Indicator
  21,                                     ! Day of Month
  1,                                      ! Month
  WinterDesignDay,                        ! Day Type
  0,                                      ! Daylight Saving Time Indicator
  Dewpoint,                               ! Humidity Indicating Type
  ,                                       ! Humidity Indicating Day Schedule Name
  DefaultMultipliers,                     ! Dry-Bulb Temperature Range Modifier Type
  ,                                       ! Dry-Bulb Temperature Range Modifier Schedule Name
  ASHRAEClearSky;                         ! Solar Model Indicator

OS:ComponentData,
  {abbb8557-16d9-450e-bb95-016868a5b49f}, ! Handle
  Component Data 1,                       ! Name
  {3026bf93-a2e2-44c1-bc72-2ca5dcfc636a}, ! UUID
  {756a80bd-eb2a-45d1-b6a2-ea36878fe9c4}, ! Version UUID
  1366310496,                             ! Creation Timestamp
  1366310496,                             ! Version Timestamp
  {cf1fc527-0bde-44f0-8dca-aad9d84f0e5e}; ! Name of Object 1

