
OS:Version,
  {e65512ec-ffd0-40c9-b091-2a4954029b3c}, ! Handle
  0.9.3;                                  ! Version Identifier

OS:SizingPeriod:DesignDay,
  {44d6299f-edee-4e36-a41e-a84463baeab7}, ! Handle
  Hooper Bay Ann Clg 2% Condns DP=>MDB,   ! Name
  13.8,                                   ! Maximum Dry-Bulb Temperature {C}
  3.4,                                    ! Daily Dry-Bulb Temperature Range {deltaC}
  11.1,                                   ! Humidity Indicating Conditions at Maximum Dry-Bulb {BasedOnField A3}
  101253,                                 ! Barometric Pressure {Pa}
  5.1,                                    ! Wind Speed {m/s}
  100,                                    ! Wind Direction {deg}
  0,                                      ! Sky Clearness
  0,                                      ! Rain Indicator
  0,                                      ! Snow Indicator
  21,                                     ! Day of Month
  8,                                      ! Month
  SummerDesignDay,                        ! Day Type
  0,                                      ! Daylight Saving Time Indicator
  Dewpoint,                               ! Humidity Indicating Type
  ,                                       ! Humidity Indicating Day Schedule Name
  DefaultMultipliers,                     ! Dry-Bulb Temperature Range Modifier Type
  ,                                       ! Dry-Bulb Temperature Range Modifier Schedule Name
  ASHRAETau,                              ! Solar Model Indicator
  ,                                       ! Beam Solar Day Schedule Name
  ,                                       ! Diffuse Solar Day Schedule Name
  0.429,                                  ! ASHRAE Taub {dimensionless}
  2.014;                                  ! ASHRAE Taud {dimensionless}

OS:ComponentData,
  {a87f02e3-4eeb-4e8e-9397-5a4d1428ee65}, ! Handle
  Component Data 1,                       ! Name
  {bcb30e32-2e32-4947-b1eb-25d487da8729}, ! UUID
  {0b9bd998-1e2e-4520-9dba-c4569f6816a5}, ! Version UUID
  1366305319,                             ! Creation Timestamp
  1366305319,                             ! Version Timestamp
  {44d6299f-edee-4e36-a41e-a84463baeab7}; ! Name of Object 1

