
OS:Version,
  {f7f6f158-28a8-48df-b962-058344fe5bba}, ! Handle
  0.9.3;                                  ! Version Identifier

OS:SizingPeriod:DesignDay,
  {8b5e6680-1644-4c7c-8139-45db8f5d72de}, ! Handle
  Farmville Ann Clg .4% Condns DB=>MWB,   ! Name
  34.8,                                   ! Maximum Dry-Bulb Temperature {C}
  11.5,                                   ! Daily Dry-Bulb Temperature Range {deltaC}
  24.6,                                   ! Humidity Indicating Conditions at Maximum Dry-Bulb {BasedOnField A3}
  99832,                                  ! Barometric Pressure {Pa}
  2.7,                                    ! Wind Speed {m/s}
  250,                                    ! Wind Direction {deg}
  0,                                      ! Sky Clearness
  0,                                      ! Rain Indicator
  0,                                      ! Snow Indicator
  21,                                     ! Day of Month
  7,                                      ! Month
  SummerDesignDay,                        ! Day Type
  0,                                      ! Daylight Saving Time Indicator
  Wetbulb,                                ! Humidity Indicating Type
  ,                                       ! Humidity Indicating Day Schedule Name
  DefaultMultipliers,                     ! Dry-Bulb Temperature Range Modifier Type
  ,                                       ! Dry-Bulb Temperature Range Modifier Schedule Name
  ASHRAETau,                              ! Solar Model Indicator
  ,                                       ! Beam Solar Day Schedule Name
  ,                                       ! Diffuse Solar Day Schedule Name
  0.545,                                  ! ASHRAE Taub {dimensionless}
  1.79;                                   ! ASHRAE Taud {dimensionless}

OS:ComponentData,
  {c945e4d4-16e2-4188-9a3d-32bce08bdbe2}, ! Handle
  Component Data 1,                       ! Name
  {1aa6dbf6-d933-4a69-953f-1caa5d84107e}, ! UUID
  {f9393e2a-a121-4c29-aca3-b72f1e3957ed}, ! Version UUID
  1366311044,                             ! Creation Timestamp
  1366311044,                             ! Version Timestamp
  {8b5e6680-1644-4c7c-8139-45db8f5d72de}; ! Name of Object 1

