
OS:Version,
  {359876f7-7222-4fd7-973b-5e525030afc5}, ! Handle
  0.9.3;                                  ! Version Identifier

OS:SizingPeriod:DesignDay,
  {059d076c-60a1-4fd9-a3b3-42d92eb01984}, ! Handle
  Daytona Beach Ann Clg 2% Condns WB=>MDB, ! Name
  30,                                     ! Maximum Dry-Bulb Temperature {C}
  9,                                      ! Daily Dry-Bulb Temperature Range {deltaC}
  25.8,                                   ! Humidity Indicating Conditions at Maximum Dry-Bulb {BasedOnField A3}
  101193,                                 ! Barometric Pressure {Pa}
  4.4,                                    ! Wind Speed {m/s}
  230,                                    ! Wind Direction {deg}
  0,                                      ! Sky Clearness
  0,                                      ! Rain Indicator
  0,                                      ! Snow Indicator
  21,                                     ! Day of Month
  7,                                      ! Month
  SummerDesignDay,                        ! Day Type
  0,                                      ! Daylight Saving Time Indicator
  Wetbulb,                                ! Humidity Indicating Type
  ,                                       ! Humidity Indicating Day Schedule Name
  DefaultMultipliers,                     ! Dry-Bulb Temperature Range Modifier Type
  ,                                       ! Dry-Bulb Temperature Range Modifier Schedule Name
  ASHRAETau,                              ! Solar Model Indicator
  ,                                       ! Beam Solar Day Schedule Name
  ,                                       ! Diffuse Solar Day Schedule Name
  0.512,                                  ! ASHRAE Taub {dimensionless}
  1.951;                                  ! ASHRAE Taud {dimensionless}

OS:ComponentData,
  {f8c7397a-c155-4dc1-af4c-0da23febc7db}, ! Handle
  Component Data 1,                       ! Name
  {b899d3bf-ee25-47f5-8022-c8b16fb4c451}, ! UUID
  {1bbdc47b-ee04-43ea-86a5-cda1c3f25723}, ! Version UUID
  1366306791,                             ! Creation Timestamp
  1366306791,                             ! Version Timestamp
  {059d076c-60a1-4fd9-a3b3-42d92eb01984}; ! Name of Object 1

