
OS:Version,
  {d6c73445-7de4-40cf-8253-7b3e28493639}, ! Handle
  0.9.3;                                  ! Version Identifier

OS:SizingPeriod:DesignDay,
  {03c3adba-5631-4058-a620-3aebb9245382}, ! Handle
  Benton Harbor Ross Ann Clg 2% Condns WB=>MDB, ! Name
  27.1,                                   ! Maximum Dry-Bulb Temperature {C}
  10.7,                                   ! Daily Dry-Bulb Temperature Range {deltaC}
  23.4,                                   ! Humidity Indicating Conditions at Maximum Dry-Bulb {BasedOnField A3}
  98992,                                  ! Barometric Pressure {Pa}
  4.9,                                    ! Wind Speed {m/s}
  240,                                    ! Wind Direction {deg}
  0,                                      ! Sky Clearness
  0,                                      ! Rain Indicator
  0,                                      ! Snow Indicator
  21,                                     ! Day of Month
  7,                                      ! Month
  SummerDesignDay,                        ! Day Type
  0,                                      ! Daylight Saving Time Indicator
  Wetbulb,                                ! Humidity Indicating Type
  ,                                       ! Humidity Indicating Day Schedule Name
  DefaultMultipliers,                     ! Dry-Bulb Temperature Range Modifier Type
  ,                                       ! Dry-Bulb Temperature Range Modifier Schedule Name
  ASHRAETau,                              ! Solar Model Indicator
  ,                                       ! Beam Solar Day Schedule Name
  ,                                       ! Diffuse Solar Day Schedule Name
  0.442,                                  ! ASHRAE Taub {dimensionless}
  2.111;                                  ! ASHRAE Taud {dimensionless}

OS:ComponentData,
  {134d8925-6553-4dd9-9f6a-a1ebfdc989e5}, ! Handle
  Component Data 1,                       ! Name
  {e19900e1-7dd3-418e-bd90-70e55607ebca}, ! UUID
  {73f272f5-32ed-425a-9194-2fc6babc8305}, ! Version UUID
  1366307958,                             ! Creation Timestamp
  1366307958,                             ! Version Timestamp
  {03c3adba-5631-4058-a620-3aebb9245382}; ! Name of Object 1

