
OS:Version,
  {0ec9be26-a0ce-492d-88b6-c5c0c967eb3b}, ! Handle
  0.9.3;                                  ! Version Identifier

OS:SizingPeriod:DesignDay,
  {1fa88876-d6f2-4b35-b27a-f50397e76c5a}, ! Handle
  Blythe Riverside Co Arpt Ann Clg 2% Condns WB=>MDB, ! Name
  36.7,                                   ! Maximum Dry-Bulb Temperature {C}
  14.6,                                   ! Daily Dry-Bulb Temperature Range {deltaC}
  24.6,                                   ! Humidity Indicating Conditions at Maximum Dry-Bulb {BasedOnField A3}
  99904,                                  ! Barometric Pressure {Pa}
  4.8,                                    ! Wind Speed {m/s}
  170,                                    ! Wind Direction {deg}
  0,                                      ! Sky Clearness
  0,                                      ! Rain Indicator
  0,                                      ! Snow Indicator
  21,                                     ! Day of Month
  7,                                      ! Month
  SummerDesignDay,                        ! Day Type
  0,                                      ! Daylight Saving Time Indicator
  Wetbulb,                                ! Humidity Indicating Type
  ,                                       ! Humidity Indicating Day Schedule Name
  DefaultMultipliers,                     ! Dry-Bulb Temperature Range Modifier Type
  ,                                       ! Dry-Bulb Temperature Range Modifier Schedule Name
  ASHRAETau,                              ! Solar Model Indicator
  ,                                       ! Beam Solar Day Schedule Name
  ,                                       ! Diffuse Solar Day Schedule Name
  0.56,                                   ! ASHRAE Taub {dimensionless}
  1.707;                                  ! ASHRAE Taud {dimensionless}

OS:ComponentData,
  {328621d8-3fdf-4393-b1ca-9d0ce5ca9820}, ! Handle
  Component Data 1,                       ! Name
  {6efaac1d-f81f-4be6-b862-79a91e3cdf4a}, ! UUID
  {20302337-5012-48a8-b833-6be53e4cac84}, ! Version UUID
  1366306389,                             ! Creation Timestamp
  1366306389,                             ! Version Timestamp
  {1fa88876-d6f2-4b35-b27a-f50397e76c5a}; ! Name of Object 1

