
OS:Version,
  {67a3966e-342c-436b-8827-f963334a482d}, ! Handle
  0.9.3;                                  ! Version Identifier

OS:SizingPeriod:DesignDay,
  {2b717a0a-17bf-48bd-972a-e078fe68e16b}, ! Handle
  Kodiak Airport Ann Clg 2% Condns WB=>MDB, ! Name
  16,                                     ! Maximum Dry-Bulb Temperature {C}
  6.4,                                    ! Daily Dry-Bulb Temperature Range {deltaC}
  13.5,                                   ! Humidity Indicating Conditions at Maximum Dry-Bulb {BasedOnField A3}
  101265,                                 ! Barometric Pressure {Pa}
  5.2,                                    ! Wind Speed {m/s}
  310,                                    ! Wind Direction {deg}
  0,                                      ! Sky Clearness
  0,                                      ! Rain Indicator
  0,                                      ! Snow Indicator
  21,                                     ! Day of Month
  8,                                      ! Month
  SummerDesignDay,                        ! Day Type
  0,                                      ! Daylight Saving Time Indicator
  Wetbulb,                                ! Humidity Indicating Type
  ,                                       ! Humidity Indicating Day Schedule Name
  DefaultMultipliers,                     ! Dry-Bulb Temperature Range Modifier Type
  ,                                       ! Dry-Bulb Temperature Range Modifier Schedule Name
  ASHRAETau,                              ! Solar Model Indicator
  ,                                       ! Beam Solar Day Schedule Name
  ,                                       ! Diffuse Solar Day Schedule Name
  0.36,                                   ! ASHRAE Taub {dimensionless}
  2.361;                                  ! ASHRAE Taud {dimensionless}

OS:ComponentData,
  {c3358edc-52fe-4141-ab00-2128002c4012}, ! Handle
  Component Data 1,                       ! Name
  {d6085fa0-e4c6-45a3-866b-276b2aa5c489}, ! UUID
  {7b897695-8594-4d2b-af55-3647f226ed8e}, ! Version UUID
  1366305382,                             ! Creation Timestamp
  1366305382,                             ! Version Timestamp
  {2b717a0a-17bf-48bd-972a-e078fe68e16b}; ! Name of Object 1

