
OS:Version,
  {5a8a1212-09d4-4503-b867-d2f95b695106}, ! Handle
  0.9.3;                                  ! Version Identifier

OS:SizingPeriod:DesignDay,
  {e5ed8e56-378c-4299-a2c1-8d44eb250f17}, ! Handle
  KAHULUI Ann Clg 1% Condns DP=>MDB,      ! Name
  26.6,                                   ! Maximum Dry-Bulb Temperature {C}
  8.3,                                    ! Daily Dry-Bulb Temperature Range {deltaC}
  23,                                     ! Humidity Indicating Conditions at Maximum Dry-Bulb {BasedOnField A3}
  101145,                                 ! Barometric Pressure {Pa}
  7.9,                                    ! Wind Speed {m/s}
  60,                                     ! Wind Direction {deg}
  0,                                      ! Sky Clearness
  0,                                      ! Rain Indicator
  0,                                      ! Snow Indicator
  21,                                     ! Day of Month
  8,                                      ! Month
  SummerDesignDay,                        ! Day Type
  0,                                      ! Daylight Saving Time Indicator
  Dewpoint,                               ! Humidity Indicating Type
  ,                                       ! Humidity Indicating Day Schedule Name
  DefaultMultipliers,                     ! Dry-Bulb Temperature Range Modifier Type
  ,                                       ! Dry-Bulb Temperature Range Modifier Schedule Name
  ASHRAETau,                              ! Solar Model Indicator
  ,                                       ! Beam Solar Day Schedule Name
  ,                                       ! Diffuse Solar Day Schedule Name
  0.383,                                  ! ASHRAE Taub {dimensionless}
  2.519;                                  ! ASHRAE Taud {dimensionless}

OS:ComponentData,
  {6e005171-7d89-42f6-baa8-534a2684fe2b}, ! Handle
  Component Data 1,                       ! Name
  {d0fbf15b-999c-4204-a41f-45ceda19f3a6}, ! UUID
  {4da4017b-b5b7-400c-8a0d-02b703d4d875}, ! Version UUID
  1366307098,                             ! Creation Timestamp
  1366307098,                             ! Version Timestamp
  {e5ed8e56-378c-4299-a2c1-8d44eb250f17}; ! Name of Object 1

