
OS:Version,
  {0aa85086-e064-4b91-a608-7ab05ebedfab}, ! Handle
  0.9.3;                                  ! Version Identifier

OS:SizingPeriod:DesignDay,
  {7de1b72a-e5a4-4993-81a6-bc0d7b93b746}, ! Handle
  CEDAR_CITY Ann Clg 2% Condns WB=>MDB,   ! Name
  26.9,                                   ! Maximum Dry-Bulb Temperature {C}
  16.7,                                   ! Daily Dry-Bulb Temperature Range {deltaC}
  16.3,                                   ! Humidity Indicating Conditions at Maximum Dry-Bulb {BasedOnField A3}
  82379,                                  ! Barometric Pressure {Pa}
  5,                                      ! Wind Speed {m/s}
  210,                                    ! Wind Direction {deg}
  0,                                      ! Sky Clearness
  0,                                      ! Rain Indicator
  0,                                      ! Snow Indicator
  21,                                     ! Day of Month
  7,                                      ! Month
  SummerDesignDay,                        ! Day Type
  0,                                      ! Daylight Saving Time Indicator
  Wetbulb,                                ! Humidity Indicating Type
  ,                                       ! Humidity Indicating Day Schedule Name
  DefaultMultipliers,                     ! Dry-Bulb Temperature Range Modifier Type
  ,                                       ! Dry-Bulb Temperature Range Modifier Schedule Name
  ASHRAETau,                              ! Solar Model Indicator
  ,                                       ! Beam Solar Day Schedule Name
  ,                                       ! Diffuse Solar Day Schedule Name
  0.415,                                  ! ASHRAE Taub {dimensionless}
  2.019;                                  ! ASHRAE Taud {dimensionless}

OS:ComponentData,
  {b64530d4-395a-4151-8984-668111617ada}, ! Handle
  Component Data 1,                       ! Name
  {b1510cec-d9b4-48e8-aeba-9514e135294d}, ! UUID
  {7ceaab4b-415f-40a7-b511-04c30a29bee8}, ! Version UUID
  1366310949,                             ! Creation Timestamp
  1366310949,                             ! Version Timestamp
  {7de1b72a-e5a4-4993-81a6-bc0d7b93b746}; ! Name of Object 1

