
OS:Version,
  {a0cc9dc5-a142-4072-a732-95b1c6d462b6}, ! Handle
  0.9.3;                                  ! Version Identifier

OS:SizingPeriod:DesignDay,
  {5f1d3061-33bc-4027-91c1-2425d6744650}, ! Handle
  Gainesville Regional Ap Ann Clg 2% Condns DP=>MDB, ! Name
  27.6,                                   ! Maximum Dry-Bulb Temperature {C}
  10.2,                                   ! Daily Dry-Bulb Temperature Range {deltaC}
  24.3,                                   ! Humidity Indicating Conditions at Maximum Dry-Bulb {BasedOnField A3}
  100833,                                 ! Barometric Pressure {Pa}
  3.7,                                    ! Wind Speed {m/s}
  270,                                    ! Wind Direction {deg}
  0,                                      ! Sky Clearness
  0,                                      ! Rain Indicator
  0,                                      ! Snow Indicator
  21,                                     ! Day of Month
  7,                                      ! Month
  SummerDesignDay,                        ! Day Type
  0,                                      ! Daylight Saving Time Indicator
  Dewpoint,                               ! Humidity Indicating Type
  ,                                       ! Humidity Indicating Day Schedule Name
  DefaultMultipliers,                     ! Dry-Bulb Temperature Range Modifier Type
  ,                                       ! Dry-Bulb Temperature Range Modifier Schedule Name
  ASHRAETau,                              ! Solar Model Indicator
  ,                                       ! Beam Solar Day Schedule Name
  ,                                       ! Diffuse Solar Day Schedule Name
  0.528,                                  ! ASHRAE Taub {dimensionless}
  1.887;                                  ! ASHRAE Taud {dimensionless}

