
OS:Version,
  {6cc78451-4aff-44f5-a9c8-326ae3fa29a5}, ! Handle
  0.9.3;                                  ! Version Identifier

OS:SizingPeriod:DesignDay,
  {dc1ac030-cf4b-4f68-ac6f-cf246f79cb59}, ! Handle
  Kona Intl At Keahol Ann Htg 99% Condns DB, ! Name
  19.5,                                   ! Maximum Dry-Bulb Temperature {C}
  0,                                      ! Daily Dry-Bulb Temperature Range {deltaC}
  19.5,                                   ! Humidity Indicating Conditions at Maximum Dry-Bulb {BasedOnField A3}
  101145,                                 ! Barometric Pressure {Pa}
  2.9,                                    ! Wind Speed {m/s}
  80,                                     ! Wind Direction {deg}
  0,                                      ! Sky Clearness
  0,                                      ! Rain Indicator
  0,                                      ! Snow Indicator
  21,                                     ! Day of Month
  2,                                      ! Month
  WinterDesignDay,                        ! Day Type
  0,                                      ! Daylight Saving Time Indicator
  Wetbulb,                                ! Humidity Indicating Type
  ,                                       ! Humidity Indicating Day Schedule Name
  DefaultMultipliers,                     ! Dry-Bulb Temperature Range Modifier Type
  ,                                       ! Dry-Bulb Temperature Range Modifier Schedule Name
  ASHRAEClearSky;                         ! Solar Model Indicator

OS:ComponentData,
  {17243d3f-d476-4416-b529-499aa4dea9a0}, ! Handle
  Component Data 1,                       ! Name
  {08e440ce-34b5-4ce7-938b-a689db57dbd3}, ! UUID
  {6e1ca9f2-44e4-4312-8784-57b03acfcc89}, ! Version UUID
  1366307107,                             ! Creation Timestamp
  1366307107,                             ! Version Timestamp
  {dc1ac030-cf4b-4f68-ac6f-cf246f79cb59}; ! Name of Object 1

