
OS:Version,
  {2987e6a1-5923-41f9-987d-5fa2a4e0aa9f}, ! Handle
  0.9.3;                                  ! Version Identifier

OS:SizingPeriod:DesignDay,
  {52fc7d7a-e073-4265-af24-d972be027c94}, ! Handle
  Columbus Muni Ann Clg .4% Condns Enth=>MDB, ! Name
  32.7,                                   ! Maximum Dry-Bulb Temperature {C}
  11.3,                                   ! Daily Dry-Bulb Temperature Range {deltaC}
  80900,                                  ! Humidity Indicating Conditions at Maximum Dry-Bulb {BasedOnField A3}
  96023,                                  ! Barometric Pressure {Pa}
  5.4,                                    ! Wind Speed {m/s}
  180,                                    ! Wind Direction {deg}
  0,                                      ! Sky Clearness
  0,                                      ! Rain Indicator
  0,                                      ! Snow Indicator
  21,                                     ! Day of Month
  7,                                      ! Month
  SummerDesignDay,                        ! Day Type
  0,                                      ! Daylight Saving Time Indicator
  Enthalpy,                               ! Humidity Indicating Type
  ,                                       ! Humidity Indicating Day Schedule Name
  DefaultMultipliers,                     ! Dry-Bulb Temperature Range Modifier Type
  ,                                       ! Dry-Bulb Temperature Range Modifier Schedule Name
  ASHRAETau,                              ! Solar Model Indicator
  ,                                       ! Beam Solar Day Schedule Name
  ,                                       ! Diffuse Solar Day Schedule Name
  0.407,                                  ! ASHRAE Taub {dimensionless}
  2.237;                                  ! ASHRAE Taud {dimensionless}

OS:ComponentData,
  {632df8a5-929d-407b-94a1-9507901b3593}, ! Handle
  Component Data 1,                       ! Name
  {233d3ed0-6343-47a8-ae02-c341064ca947}, ! UUID
  {4b815ca1-c8f1-4cb7-a67d-dd749f9e79ee}, ! Version UUID
  1366309098,                             ! Creation Timestamp
  1366309098,                             ! Version Timestamp
  {52fc7d7a-e073-4265-af24-d972be027c94}; ! Name of Object 1

