
OS:Version,
  {be70986f-83ae-4ce3-b144-76e17920f650}, ! Handle
  0.9.3;                                  ! Version Identifier

OS:SizingPeriod:DesignDay,
  {242abb87-98be-426a-9615-1d080b45cde6}, ! Handle
  Casper Natrona Co Intl Ap Ann Clg 2% Condns WB=>MDB, ! Name
  27.2,                                   ! Maximum Dry-Bulb Temperature {C}
  18.1,                                   ! Daily Dry-Bulb Temperature Range {deltaC}
  16,                                     ! Humidity Indicating Conditions at Maximum Dry-Bulb {BasedOnField A3}
  83246,                                  ! Barometric Pressure {Pa}
  5.5,                                    ! Wind Speed {m/s}
  230,                                    ! Wind Direction {deg}
  0,                                      ! Sky Clearness
  0,                                      ! Rain Indicator
  0,                                      ! Snow Indicator
  21,                                     ! Day of Month
  7,                                      ! Month
  SummerDesignDay,                        ! Day Type
  0,                                      ! Daylight Saving Time Indicator
  Wetbulb,                                ! Humidity Indicating Type
  ,                                       ! Humidity Indicating Day Schedule Name
  DefaultMultipliers,                     ! Dry-Bulb Temperature Range Modifier Type
  ,                                       ! Dry-Bulb Temperature Range Modifier Schedule Name
  ASHRAETau,                              ! Solar Model Indicator
  ,                                       ! Beam Solar Day Schedule Name
  ,                                       ! Diffuse Solar Day Schedule Name
  0.411,                                  ! ASHRAE Taub {dimensionless}
  2.017;                                  ! ASHRAE Taud {dimensionless}

OS:ComponentData,
  {43dc79ed-fe39-46cf-8227-9411c955724c}, ! Handle
  Component Data 1,                       ! Name
  {dcef0578-08fa-484a-8903-231ef36acda8}, ! UUID
  {9edbae6d-b578-4f4e-87cf-a41bb68fc41a}, ! Version UUID
  1366311690,                             ! Creation Timestamp
  1366311690,                             ! Version Timestamp
  {242abb87-98be-426a-9615-1d080b45cde6}; ! Name of Object 1

