
OS:Version,
  {b9ab18a2-72a6-471f-9564-5d1fc27c2af5}, ! Handle
  0.9.3;                                  ! Version Identifier

OS:SizingPeriod:DesignDay,
  {1dff42b3-e7c7-45bb-8f46-b7d88da2ffad}, ! Handle
  Crestview Bob Sikes Ap Ann Htg Wind 99% Condns WS=>MCDB, ! Name
  13.7,                                   ! Maximum Dry-Bulb Temperature {C}
  0,                                      ! Daily Dry-Bulb Temperature Range {deltaC}
  13.7,                                   ! Humidity Indicating Conditions at Maximum Dry-Bulb {BasedOnField A3}
  100630,                                 ! Barometric Pressure {Pa}
  8.1,                                    ! Wind Speed {m/s}
  0,                                      ! Wind Direction {deg}
  0,                                      ! Sky Clearness
  0,                                      ! Rain Indicator
  0,                                      ! Snow Indicator
  21,                                     ! Day of Month
  1,                                      ! Month
  WinterDesignDay,                        ! Day Type
  0,                                      ! Daylight Saving Time Indicator
  Wetbulb,                                ! Humidity Indicating Type
  ,                                       ! Humidity Indicating Day Schedule Name
  DefaultMultipliers,                     ! Dry-Bulb Temperature Range Modifier Type
  ,                                       ! Dry-Bulb Temperature Range Modifier Schedule Name
  ASHRAEClearSky;                         ! Solar Model Indicator

OS:ComponentData,
  {5532188d-a15f-414b-9382-a5d9a7ad5ee2}, ! Handle
  Component Data 1,                       ! Name
  {e28f8362-3974-4ce8-b600-587cc3e8917f}, ! UUID
  {3370c10b-a7dc-4782-bb99-c8c47c1b9e3c}, ! Version UUID
  1366306784,                             ! Creation Timestamp
  1366306784,                             ! Version Timestamp
  {1dff42b3-e7c7-45bb-8f46-b7d88da2ffad}; ! Name of Object 1

