
OS:Version,
  {a1c7a5da-9ff4-434b-acf5-173bffa471e8}, ! Handle
  0.9.3;                                  ! Version Identifier

OS:SizingPeriod:DesignDay,
  {6336d6b5-8b22-4713-a5e0-2fa9b0da56ec}, ! Handle
  Charlotte Douglas Intl Arpt Ann Htg 99% Condns DB, ! Name
  -4.1,                                   ! Maximum Dry-Bulb Temperature {C}
  0,                                      ! Daily Dry-Bulb Temperature Range {deltaC}
  -4.1,                                   ! Humidity Indicating Conditions at Maximum Dry-Bulb {BasedOnField A3}
  98686,                                  ! Barometric Pressure {Pa}
  2.7,                                    ! Wind Speed {m/s}
  20,                                     ! Wind Direction {deg}
  0,                                      ! Sky Clearness
  0,                                      ! Rain Indicator
  0,                                      ! Snow Indicator
  21,                                     ! Day of Month
  1,                                      ! Month
  WinterDesignDay,                        ! Day Type
  0,                                      ! Daylight Saving Time Indicator
  Wetbulb,                                ! Humidity Indicating Type
  ,                                       ! Humidity Indicating Day Schedule Name
  DefaultMultipliers,                     ! Dry-Bulb Temperature Range Modifier Type
  ,                                       ! Dry-Bulb Temperature Range Modifier Schedule Name
  ASHRAEClearSky;                         ! Solar Model Indicator

OS:ComponentData,
  {312cce05-1555-458e-8bd2-6c5936cb3e00}, ! Handle
  Component Data 1,                       ! Name
  {7166a51a-2d0a-4059-800a-14312f0e3c60}, ! UUID
  {4a5086ae-a79b-40f7-9570-01f070b24599}, ! Version UUID
  1366308888,                             ! Creation Timestamp
  1366308888,                             ! Version Timestamp
  {6336d6b5-8b22-4713-a5e0-2fa9b0da56ec}; ! Name of Object 1

