
OS:Version,
  {93d41020-b839-4bf4-a110-0161b15547ba}, ! Handle
  0.9.3;                                  ! Version Identifier

OS:SizingPeriod:DesignDay,
  {662b6977-3032-41dc-aa13-0cc455861749}, ! Handle
  Erie Ann Clg .4% Condns Enth=>MDB,      ! Name
  28.2,                                   ! Maximum Dry-Bulb Temperature {C}
  8.3,                                    ! Daily Dry-Bulb Temperature Range {deltaC}
  73300,                                  ! Humidity Indicating Conditions at Maximum Dry-Bulb {BasedOnField A3}
  98651,                                  ! Barometric Pressure {Pa}
  5,                                      ! Wind Speed {m/s}
  260,                                    ! Wind Direction {deg}
  0,                                      ! Sky Clearness
  0,                                      ! Rain Indicator
  0,                                      ! Snow Indicator
  21,                                     ! Day of Month
  7,                                      ! Month
  SummerDesignDay,                        ! Day Type
  0,                                      ! Daylight Saving Time Indicator
  Enthalpy,                               ! Humidity Indicating Type
  ,                                       ! Humidity Indicating Day Schedule Name
  DefaultMultipliers,                     ! Dry-Bulb Temperature Range Modifier Type
  ,                                       ! Dry-Bulb Temperature Range Modifier Schedule Name
  ASHRAETau,                              ! Solar Model Indicator
  ,                                       ! Beam Solar Day Schedule Name
  ,                                       ! Diffuse Solar Day Schedule Name
  0.455,                                  ! ASHRAE Taub {dimensionless}
  2.041;                                  ! ASHRAE Taud {dimensionless}

OS:ComponentData,
  {9f6dd5f7-2036-4190-b19c-d17643ac66b0}, ! Handle
  Component Data 1,                       ! Name
  {6aa3779f-f8ff-44a9-9e7f-6139b437812e}, ! UUID
  {bd25bb15-66b1-4a35-b62f-b3c84ae8c2e3}, ! Version UUID
  1366310170,                             ! Creation Timestamp
  1366310170,                             ! Version Timestamp
  {662b6977-3032-41dc-aa13-0cc455861749}; ! Name of Object 1

