
OS:Version,
  {3abdd0c0-23ee-4bd3-97ee-7a2eb9d5400a}, ! Handle
  0.9.3;                                  ! Version Identifier

OS:SizingPeriod:DesignDay,
  {f5aca565-ce80-4084-882f-0b49fc8a5e40}, ! Handle
  Lemoore Reeves Nas Ann Clg 2% Condns DB=>MWB, ! Name
  36.7,                                   ! Maximum Dry-Bulb Temperature {C}
  18.6,                                   ! Daily Dry-Bulb Temperature Range {deltaC}
  21.1,                                   ! Humidity Indicating Conditions at Maximum Dry-Bulb {BasedOnField A3}
  100451,                                 ! Barometric Pressure {Pa}
  2.8,                                    ! Wind Speed {m/s}
  0,                                      ! Wind Direction {deg}
  0,                                      ! Sky Clearness
  0,                                      ! Rain Indicator
  0,                                      ! Snow Indicator
  21,                                     ! Day of Month
  7,                                      ! Month
  SummerDesignDay,                        ! Day Type
  0,                                      ! Daylight Saving Time Indicator
  Wetbulb,                                ! Humidity Indicating Type
  ,                                       ! Humidity Indicating Day Schedule Name
  DefaultMultipliers,                     ! Dry-Bulb Temperature Range Modifier Type
  ,                                       ! Dry-Bulb Temperature Range Modifier Schedule Name
  ASHRAETau,                              ! Solar Model Indicator
  ,                                       ! Beam Solar Day Schedule Name
  ,                                       ! Diffuse Solar Day Schedule Name
  0.413,                                  ! ASHRAE Taub {dimensionless}
  2.187;                                  ! ASHRAE Taud {dimensionless}

OS:ComponentData,
  {43eeec9f-94b9-460c-b789-18c6bcc068cc}, ! Handle
  Component Data 1,                       ! Name
  {29723e55-6846-477f-9f8c-917f20ce4ec6}, ! UUID
  {79cc8ad1-b21c-4a6d-af46-04f8b0706339}, ! Version UUID
  1366306461,                             ! Creation Timestamp
  1366306461,                             ! Version Timestamp
  {f5aca565-ce80-4084-882f-0b49fc8a5e40}; ! Name of Object 1

