
OS:Version,
  {fd19fc03-2031-4b10-a5df-f8cf113227ec}, ! Handle
  0.9.3;                                  ! Version Identifier

OS:SizingPeriod:DesignDay,
  {2be339c1-418d-43f9-8053-8f161006f641}, ! Handle
  Cox Fld Ann Htg Wind 99.6% Condns WS=>MCDB, ! Name
  7.7,                                    ! Maximum Dry-Bulb Temperature {C}
  0,                                      ! Daily Dry-Bulb Temperature Range {deltaC}
  7.7,                                    ! Humidity Indicating Conditions at Maximum Dry-Bulb {BasedOnField A3}
  99288,                                  ! Barometric Pressure {Pa}
  12.8,                                   ! Wind Speed {m/s}
  350,                                    ! Wind Direction {deg}
  0,                                      ! Sky Clearness
  0,                                      ! Rain Indicator
  0,                                      ! Snow Indicator
  21,                                     ! Day of Month
  1,                                      ! Month
  WinterDesignDay,                        ! Day Type
  0,                                      ! Daylight Saving Time Indicator
  Wetbulb,                                ! Humidity Indicating Type
  ,                                       ! Humidity Indicating Day Schedule Name
  DefaultMultipliers,                     ! Dry-Bulb Temperature Range Modifier Type
  ,                                       ! Dry-Bulb Temperature Range Modifier Schedule Name
  ASHRAEClearSky;                         ! Solar Model Indicator

OS:ComponentData,
  {119c7846-e963-4a59-949c-bcb50613355a}, ! Handle
  Component Data 1,                       ! Name
  {00c2ffa0-61f8-44de-a505-1b4d8bcb7653}, ! UUID
  {291c0a56-a274-4c4b-a2d2-eb2c57cec1c2}, ! Version UUID
  1366310645,                             ! Creation Timestamp
  1366310645,                             ! Version Timestamp
  {2be339c1-418d-43f9-8053-8f161006f641}; ! Name of Object 1

