
OS:Version,
  {01551bfb-be4b-4038-8175-fb52914dd76b}, ! Handle
  0.9.3;                                  ! Version Identifier

OS:SizingPeriod:DesignDay,
  {40b36417-5e03-4028-b85a-5da486d59011}, ! Handle
  Blue Canyon Ap Ann Clg .4% Condns WB=>MDB, ! Name
  25.9,                                   ! Maximum Dry-Bulb Temperature {C}
  8,                                      ! Daily Dry-Bulb Temperature Range {deltaC}
  17,                                     ! Humidity Indicating Conditions at Maximum Dry-Bulb {BasedOnField A3}
  83431,                                  ! Barometric Pressure {Pa}
  2.6,                                    ! Wind Speed {m/s}
  280,                                    ! Wind Direction {deg}
  0,                                      ! Sky Clearness
  0,                                      ! Rain Indicator
  0,                                      ! Snow Indicator
  21,                                     ! Day of Month
  7,                                      ! Month
  SummerDesignDay,                        ! Day Type
  0,                                      ! Daylight Saving Time Indicator
  Wetbulb,                                ! Humidity Indicating Type
  ,                                       ! Humidity Indicating Day Schedule Name
  DefaultMultipliers,                     ! Dry-Bulb Temperature Range Modifier Type
  ,                                       ! Dry-Bulb Temperature Range Modifier Schedule Name
  ASHRAETau,                              ! Solar Model Indicator
  ,                                       ! Beam Solar Day Schedule Name
  ,                                       ! Diffuse Solar Day Schedule Name
  0.324,                                  ! ASHRAE Taub {dimensionless}
  2.564;                                  ! ASHRAE Taud {dimensionless}

OS:ComponentData,
  {b2e6fdc4-3805-4d64-9110-c0e9f4d1f37a}, ! Handle
  Component Data 1,                       ! Name
  {23be4b34-763d-4c1d-80a1-45fe189362e7}, ! UUID
  {e4c172e9-099d-4e8c-a99d-4025bbbe7c09}, ! Version UUID
  1366306386,                             ! Creation Timestamp
  1366306386,                             ! Version Timestamp
  {40b36417-5e03-4028-b85a-5da486d59011}; ! Name of Object 1

