
OS:Version,
  {fc806073-ac08-4f0a-a597-8d3cbacf8dd1}, ! Handle
  0.9.3;                                  ! Version Identifier

OS:SizingPeriod:DesignDay,
  {4ffea3e8-1ba4-489d-a3ac-2dc7fd39ae04}, ! Handle
  Fargo Ann Clg .4% Condns Enth=>MDB,     ! Name
  29.8,                                   ! Maximum Dry-Bulb Temperature {C}
  11.8,                                   ! Daily Dry-Bulb Temperature Range {deltaC}
  74400,                                  ! Humidity Indicating Conditions at Maximum Dry-Bulb {BasedOnField A3}
  98076,                                  ! Barometric Pressure {Pa}
  6.5,                                    ! Wind Speed {m/s}
  170,                                    ! Wind Direction {deg}
  0,                                      ! Sky Clearness
  0,                                      ! Rain Indicator
  0,                                      ! Snow Indicator
  21,                                     ! Day of Month
  7,                                      ! Month
  SummerDesignDay,                        ! Day Type
  0,                                      ! Daylight Saving Time Indicator
  Enthalpy,                               ! Humidity Indicating Type
  ,                                       ! Humidity Indicating Day Schedule Name
  DefaultMultipliers,                     ! Dry-Bulb Temperature Range Modifier Type
  ,                                       ! Dry-Bulb Temperature Range Modifier Schedule Name
  ASHRAETau,                              ! Solar Model Indicator
  ,                                       ! Beam Solar Day Schedule Name
  ,                                       ! Diffuse Solar Day Schedule Name
  0.396,                                  ! ASHRAE Taub {dimensionless}
  2.253;                                  ! ASHRAE Taud {dimensionless}

OS:ComponentData,
  {04278598-c6da-46ee-ab07-df5d2e84d931}, ! Handle
  Component Data 1,                       ! Name
  {a5839184-8fcd-4eec-92f9-5f3f72f4e5f3}, ! UUID
  {0f8261d9-390b-4249-99a9-34d762fe2aa6}, ! Version UUID
  1366309027,                             ! Creation Timestamp
  1366309027,                             ! Version Timestamp
  {4ffea3e8-1ba4-489d-a3ac-2dc7fd39ae04}; ! Name of Object 1

