
OS:Version,
  {8b3fa271-0ddc-41a6-ab4e-674f94270af6}, ! Handle
  0.9.3;                                  ! Version Identifier

OS:SizingPeriod:DesignDay,
  {575a41cb-2409-42a0-abac-327fa9c55b87}, ! Handle
  EAU_CLAIRE Ann Clg 2% Condns Enth=>MDB, ! Name
  27.5,                                   ! Maximum Dry-Bulb Temperature {C}
  11.5,                                   ! Daily Dry-Bulb Temperature Range {deltaC}
  66900,                                  ! Humidity Indicating Conditions at Maximum Dry-Bulb {BasedOnField A3}
  98088,                                  ! Barometric Pressure {Pa}
  5.2,                                    ! Wind Speed {m/s}
  190,                                    ! Wind Direction {deg}
  0,                                      ! Sky Clearness
  0,                                      ! Rain Indicator
  0,                                      ! Snow Indicator
  21,                                     ! Day of Month
  7,                                      ! Month
  SummerDesignDay,                        ! Day Type
  0,                                      ! Daylight Saving Time Indicator
  Enthalpy,                               ! Humidity Indicating Type
  ,                                       ! Humidity Indicating Day Schedule Name
  DefaultMultipliers,                     ! Dry-Bulb Temperature Range Modifier Type
  ,                                       ! Dry-Bulb Temperature Range Modifier Schedule Name
  ASHRAETau,                              ! Solar Model Indicator
  ,                                       ! Beam Solar Day Schedule Name
  ,                                       ! Diffuse Solar Day Schedule Name
  0.412,                                  ! ASHRAE Taub {dimensionless}
  2.189;                                  ! ASHRAE Taud {dimensionless}

OS:ComponentData,
  {36ead05c-15aa-44f6-b8a1-8775fe46e757}, ! Handle
  Component Data 1,                       ! Name
  {1d4bdd58-f44b-476f-8044-292ffc64d537}, ! UUID
  {552962b9-3331-4011-962e-cba19199816b}, ! Version UUID
  1366311465,                             ! Creation Timestamp
  1366311465,                             ! Version Timestamp
  {575a41cb-2409-42a0-abac-327fa9c55b87}; ! Name of Object 1

