
OS:Version,
  {2756d1f0-6dc9-4531-8f55-2107930cd86f}, ! Handle
  0.9.3;                                  ! Version Identifier

OS:SizingPeriod:DesignDay,
  {ebf13630-8cc2-4feb-9339-f94b086d06a7}, ! Handle
  BOSTON Ann Htg 99% Condns DB,           ! Name
  -10.9,                                  ! Maximum Dry-Bulb Temperature {C}
  0,                                      ! Daily Dry-Bulb Temperature Range {deltaC}
  -10.9,                                  ! Humidity Indicating Conditions at Maximum Dry-Bulb {BasedOnField A3}
  101265,                                 ! Barometric Pressure {Pa}
  7.2,                                    ! Wind Speed {m/s}
  320,                                    ! Wind Direction {deg}
  0,                                      ! Sky Clearness
  0,                                      ! Rain Indicator
  0,                                      ! Snow Indicator
  21,                                     ! Day of Month
  1,                                      ! Month
  WinterDesignDay,                        ! Day Type
  0,                                      ! Daylight Saving Time Indicator
  Wetbulb,                                ! Humidity Indicating Type
  ,                                       ! Humidity Indicating Day Schedule Name
  DefaultMultipliers,                     ! Dry-Bulb Temperature Range Modifier Type
  ,                                       ! Dry-Bulb Temperature Range Modifier Schedule Name
  ASHRAEClearSky;                         ! Solar Model Indicator

OS:ComponentData,
  {9a5afad1-c908-43e9-a529-c7f04ca10047}, ! Handle
  Component Data 1,                       ! Name
  {59fcf5c3-c39f-4d05-a26f-62846150a4da}, ! UUID
  {a4fe2e41-a3d9-479d-b674-f1acd683f5c9}, ! Version UUID
  1366307781,                             ! Creation Timestamp
  1366307781,                             ! Version Timestamp
  {ebf13630-8cc2-4feb-9339-f94b086d06a7}; ! Name of Object 1

