
OS:Version,
  {7e49c75d-b736-4a13-95ef-1f50612d1e3a}, ! Handle
  0.9.3;                                  ! Version Identifier

OS:SizingPeriod:DesignDay,
  {9717d01d-7664-4738-a2e2-2b53a0c061c3}, ! Handle
  Lovelock Derby Field Ann Clg 1% Condns Enth=>MDB, ! Name
  31.2,                                   ! Maximum Dry-Bulb Temperature {C}
  20.2,                                   ! Daily Dry-Bulb Temperature Range {deltaC}
  55000,                                  ! Humidity Indicating Conditions at Maximum Dry-Bulb {BasedOnField A3}
  87833,                                  ! Barometric Pressure {Pa}
  4.1,                                    ! Wind Speed {m/s}
  180,                                    ! Wind Direction {deg}
  0,                                      ! Sky Clearness
  0,                                      ! Rain Indicator
  0,                                      ! Snow Indicator
  21,                                     ! Day of Month
  7,                                      ! Month
  SummerDesignDay,                        ! Day Type
  0,                                      ! Daylight Saving Time Indicator
  Enthalpy,                               ! Humidity Indicating Type
  ,                                       ! Humidity Indicating Day Schedule Name
  DefaultMultipliers,                     ! Dry-Bulb Temperature Range Modifier Type
  ,                                       ! Dry-Bulb Temperature Range Modifier Schedule Name
  ASHRAETau,                              ! Solar Model Indicator
  ,                                       ! Beam Solar Day Schedule Name
  ,                                       ! Diffuse Solar Day Schedule Name
  0.427,                                  ! ASHRAE Taub {dimensionless}
  1.948;                                  ! ASHRAE Taud {dimensionless}

OS:ComponentData,
  {e4a45926-b0cb-4315-b92b-a914435110ae}, ! Handle
  Component Data 1,                       ! Name
  {7fae8195-1b23-4892-aa27-28ecb92052ff}, ! UUID
  {ede2ca26-5f33-4b4d-a6b8-f399248bcf5a}, ! Version UUID
  1366309518,                             ! Creation Timestamp
  1366309518,                             ! Version Timestamp
  {9717d01d-7664-4738-a2e2-2b53a0c061c3}; ! Name of Object 1

