
OS:Version,
  {20aba046-3ef3-499e-a378-9ff3993147b3}, ! Handle
  0.9.3;                                  ! Version Identifier

OS:SizingPeriod:DesignDay,
  {22606ac8-d204-443f-9244-a5cee38f9508}, ! Handle
  Eau Claire County Ap Ann Clg 2% Condns Enth=>MDB, ! Name
  27.5,                                   ! Maximum Dry-Bulb Temperature {C}
  11.5,                                   ! Daily Dry-Bulb Temperature Range {deltaC}
  66900,                                  ! Humidity Indicating Conditions at Maximum Dry-Bulb {BasedOnField A3}
  98112,                                  ! Barometric Pressure {Pa}
  5.2,                                    ! Wind Speed {m/s}
  190,                                    ! Wind Direction {deg}
  0,                                      ! Sky Clearness
  0,                                      ! Rain Indicator
  0,                                      ! Snow Indicator
  21,                                     ! Day of Month
  7,                                      ! Month
  SummerDesignDay,                        ! Day Type
  0,                                      ! Daylight Saving Time Indicator
  Enthalpy,                               ! Humidity Indicating Type
  ,                                       ! Humidity Indicating Day Schedule Name
  DefaultMultipliers,                     ! Dry-Bulb Temperature Range Modifier Type
  ,                                       ! Dry-Bulb Temperature Range Modifier Schedule Name
  ASHRAETau,                              ! Solar Model Indicator
  ,                                       ! Beam Solar Day Schedule Name
  ,                                       ! Diffuse Solar Day Schedule Name
  0.412,                                  ! ASHRAE Taub {dimensionless}
  2.189;                                  ! ASHRAE Taud {dimensionless}

OS:ComponentData,
  {db97441a-cf7a-4e5f-8444-e2adc7d246bd}, ! Handle
  Component Data 1,                       ! Name
  {3c4c2301-786a-4d3c-8312-75784c52d483}, ! UUID
  {6b0e7ce3-24d7-4dc7-b8f6-8946f98554cc}, ! Version UUID
  1366311476,                             ! Creation Timestamp
  1366311476,                             ! Version Timestamp
  {22606ac8-d204-443f-9244-a5cee38f9508}; ! Name of Object 1

