
OS:Version,
  {b7af4bef-cce9-4961-94ec-a673a2650c9c}, ! Handle
  0.9.3;                                  ! Version Identifier

OS:SizingPeriod:DesignDay,
  {15ca0a59-bfb3-42df-8695-a0df30a25ce0}, ! Handle
  El Paso Ann Clg .4% Condns DP=>MDB,     ! Name
  22.8,                                   ! Maximum Dry-Bulb Temperature {C}
  13,                                     ! Daily Dry-Bulb Temperature Range {deltaC}
  19.4,                                   ! Humidity Indicating Conditions at Maximum Dry-Bulb {BasedOnField A3}
  87780,                                  ! Barometric Pressure {Pa}
  3.9,                                    ! Wind Speed {m/s}
  280,                                    ! Wind Direction {deg}
  0,                                      ! Sky Clearness
  0,                                      ! Rain Indicator
  0,                                      ! Snow Indicator
  21,                                     ! Day of Month
  7,                                      ! Month
  SummerDesignDay,                        ! Day Type
  0,                                      ! Daylight Saving Time Indicator
  Dewpoint,                               ! Humidity Indicating Type
  ,                                       ! Humidity Indicating Day Schedule Name
  DefaultMultipliers,                     ! Dry-Bulb Temperature Range Modifier Type
  ,                                       ! Dry-Bulb Temperature Range Modifier Schedule Name
  ASHRAETau,                              ! Solar Model Indicator
  ,                                       ! Beam Solar Day Schedule Name
  ,                                       ! Diffuse Solar Day Schedule Name
  0.605,                                  ! ASHRAE Taub {dimensionless}
  1.547;                                  ! ASHRAE Taud {dimensionless}

OS:ComponentData,
  {184d0519-5c58-4dfd-92b4-f1e54a5a5c91}, ! Handle
  Component Data 1,                       ! Name
  {5f1493a5-8d4b-435f-af99-fd72cc609e06}, ! UUID
  {0d085542-610c-4946-8f4d-96663cb06b1c}, ! Version UUID
  1366310689,                             ! Creation Timestamp
  1366310689,                             ! Version Timestamp
  {15ca0a59-bfb3-42df-8695-a0df30a25ce0}; ! Name of Object 1

