
OS:Version,
  {7ded6589-1c9c-44a0-8688-b0c2deed1237}, ! Handle
  0.9.3;                                  ! Version Identifier

OS:SizingPeriod:DesignDay,
  {c3b56e60-cb60-40f7-b14d-b2d7d7a602b8}, ! Handle
  Glenwood  Asos Ann Clg 1% Condns Enth=>MDB, ! Name
  28.1,                                   ! Maximum Dry-Bulb Temperature {C}
  10.7,                                   ! Daily Dry-Bulb Temperature Range {deltaC}
  75000,                                  ! Humidity Indicating Conditions at Maximum Dry-Bulb {BasedOnField A3}
  96322,                                  ! Barometric Pressure {Pa}
  6.1,                                    ! Wind Speed {m/s}
  180,                                    ! Wind Direction {deg}
  0,                                      ! Sky Clearness
  0,                                      ! Rain Indicator
  0,                                      ! Snow Indicator
  21,                                     ! Day of Month
  7,                                      ! Month
  SummerDesignDay,                        ! Day Type
  0,                                      ! Daylight Saving Time Indicator
  Enthalpy,                               ! Humidity Indicating Type
  ,                                       ! Humidity Indicating Day Schedule Name
  DefaultMultipliers,                     ! Dry-Bulb Temperature Range Modifier Type
  ,                                       ! Dry-Bulb Temperature Range Modifier Schedule Name
  ASHRAETau,                              ! Solar Model Indicator
  ,                                       ! Beam Solar Day Schedule Name
  ,                                       ! Diffuse Solar Day Schedule Name
  0.391,                                  ! ASHRAE Taub {dimensionless}
  2.266;                                  ! ASHRAE Taud {dimensionless}

OS:ComponentData,
  {95e4e371-20ef-447e-a475-a1213828ee8f}, ! Handle
  Component Data 1,                       ! Name
  {5b0f7950-d81c-447e-99c7-ed651f653f80}, ! UUID
  {54d84846-ce33-42de-a32f-97e92c778d52}, ! Version UUID
  1366308243,                             ! Creation Timestamp
  1366308243,                             ! Version Timestamp
  {c3b56e60-cb60-40f7-b14d-b2d7d7a602b8}; ! Name of Object 1

