
OS:Version,
  {466525b7-4e52-4111-bc6c-66ab488f8fe7}, ! Handle
  0.9.3;                                  ! Version Identifier

OS:SizingPeriod:DesignDay,
  {badecd94-f2fc-4569-a27a-02662d436bf6}, ! Handle
  Galveston Scholes Ann Hum_n 99% Condns DP=>MCDB, ! Name
  5.5,                                    ! Maximum Dry-Bulb Temperature {C}
  0,                                      ! Daily Dry-Bulb Temperature Range {deltaC}
  -3.6,                                   ! Humidity Indicating Conditions at Maximum Dry-Bulb {BasedOnField A3}
  101133,                                 ! Barometric Pressure {Pa}
  7.1,                                    ! Wind Speed {m/s}
  30,                                     ! Wind Direction {deg}
  0,                                      ! Sky Clearness
  0,                                      ! Rain Indicator
  0,                                      ! Snow Indicator
  21,                                     ! Day of Month
  1,                                      ! Month
  WinterDesignDay,                        ! Day Type
  0,                                      ! Daylight Saving Time Indicator
  Dewpoint,                               ! Humidity Indicating Type
  ,                                       ! Humidity Indicating Day Schedule Name
  DefaultMultipliers,                     ! Dry-Bulb Temperature Range Modifier Type
  ,                                       ! Dry-Bulb Temperature Range Modifier Schedule Name
  ASHRAEClearSky;                         ! Solar Model Indicator

OS:ComponentData,
  {0e24e068-87a5-4c45-b30c-8345c7fd5a42}, ! Handle
  Component Data 1,                       ! Name
  {626e6388-998a-41ec-83eb-54f82f891381}, ! UUID
  {a3919722-24da-48bb-9fb3-c36ee64e0edc}, ! Version UUID
  1366310718,                             ! Creation Timestamp
  1366310718,                             ! Version Timestamp
  {badecd94-f2fc-4569-a27a-02662d436bf6}; ! Name of Object 1

