
OS:Version,
  {4c9eec21-aa6f-42ee-b553-990b6aa4aa1b}, ! Handle
  0.9.3;                                  ! Version Identifier

OS:SizingPeriod:DesignDay,
  {f2dfe9c5-d7d7-47a3-b2c9-d0af06ce370e}, ! Handle
  Detroit/City Ann Htg Wind 99.6% Condns WS=>MCDB, ! Name
  -3.3,                                   ! Maximum Dry-Bulb Temperature {C}
  0,                                      ! Daily Dry-Bulb Temperature Range {deltaC}
  -3.3,                                   ! Humidity Indicating Conditions at Maximum Dry-Bulb {BasedOnField A3}
  99063,                                  ! Barometric Pressure {Pa}
  11.1,                                   ! Wind Speed {m/s}
  250,                                    ! Wind Direction {deg}
  0,                                      ! Sky Clearness
  0,                                      ! Rain Indicator
  0,                                      ! Snow Indicator
  21,                                     ! Day of Month
  1,                                      ! Month
  WinterDesignDay,                        ! Day Type
  0,                                      ! Daylight Saving Time Indicator
  Wetbulb,                                ! Humidity Indicating Type
  ,                                       ! Humidity Indicating Day Schedule Name
  DefaultMultipliers,                     ! Dry-Bulb Temperature Range Modifier Type
  ,                                       ! Dry-Bulb Temperature Range Modifier Schedule Name
  ASHRAEClearSky;                         ! Solar Model Indicator

OS:ComponentData,
  {e9988b76-c8be-4ed3-84d9-aef4c4a0c610}, ! Handle
  Component Data 1,                       ! Name
  {8e45bf3f-9ed8-4eaf-9330-b401490be113}, ! UUID
  {77263fe4-9312-407d-b2d1-f7d442162ded}, ! Version UUID
  1366307971,                             ! Creation Timestamp
  1366307971,                             ! Version Timestamp
  {f2dfe9c5-d7d7-47a3-b2c9-d0af06ce370e}; ! Name of Object 1

