
OS:Version,
  {0f2bbc18-9af6-422d-a70c-864b3df87373}, ! Handle
  0.9.3;                                  ! Version Identifier

OS:SizingPeriod:DesignDay,
  {1d49c260-9b30-4630-aaf3-17ce4e6a73ef}, ! Handle
  Juneau IntL Arpt Ann Htg Wind 99.6% Condns WS=>MCDB, ! Name
  3.4,                                    ! Maximum Dry-Bulb Temperature {C}
  0,                                      ! Daily Dry-Bulb Temperature Range {deltaC}
  3.4,                                    ! Humidity Indicating Conditions at Maximum Dry-Bulb {BasedOnField A3}
  101277,                                 ! Barometric Pressure {Pa}
  14.4,                                   ! Wind Speed {m/s}
  0,                                      ! Wind Direction {deg}
  0,                                      ! Sky Clearness
  0,                                      ! Rain Indicator
  0,                                      ! Snow Indicator
  21,                                     ! Day of Month
  1,                                      ! Month
  WinterDesignDay,                        ! Day Type
  0,                                      ! Daylight Saving Time Indicator
  Wetbulb,                                ! Humidity Indicating Type
  ,                                       ! Humidity Indicating Day Schedule Name
  DefaultMultipliers,                     ! Dry-Bulb Temperature Range Modifier Type
  ,                                       ! Dry-Bulb Temperature Range Modifier Schedule Name
  ASHRAEClearSky;                         ! Solar Model Indicator

OS:ComponentData,
  {93204ccd-b197-423d-a874-ce4aa6492e0e}, ! Handle
  Component Data 1,                       ! Name
  {dd844cba-bf2c-4560-a4ba-136f79b477de}, ! UUID
  {6f20b77f-9783-4d73-9fc0-859f957a4a72}, ! Version UUID
  1366305337,                             ! Creation Timestamp
  1366305337,                             ! Version Timestamp
  {1d49c260-9b30-4630-aaf3-17ce4e6a73ef}; ! Name of Object 1

