
OS:Version,
  {d59c5f94-1b8c-45de-8ebb-32e58b4f2024}, ! Handle
  0.9.3;                                  ! Version Identifier

OS:SizingPeriod:DesignDay,
  {d1ae84a6-6e0a-4c2f-aff0-731287981c86}, ! Handle
  ALAMOSA Ann Clg .4% Condns Enth=>MDB,   ! Name
  24.6,                                   ! Maximum Dry-Bulb Temperature {C}
  18.7,                                   ! Daily Dry-Bulb Temperature Range {deltaC}
  51200,                                  ! Humidity Indicating Conditions at Maximum Dry-Bulb {BasedOnField A3}
  76607,                                  ! Barometric Pressure {Pa}
  5,                                      ! Wind Speed {m/s}
  240,                                    ! Wind Direction {deg}
  0,                                      ! Sky Clearness
  0,                                      ! Rain Indicator
  0,                                      ! Snow Indicator
  21,                                     ! Day of Month
  7,                                      ! Month
  SummerDesignDay,                        ! Day Type
  0,                                      ! Daylight Saving Time Indicator
  Enthalpy,                               ! Humidity Indicating Type
  ,                                       ! Humidity Indicating Day Schedule Name
  DefaultMultipliers,                     ! Dry-Bulb Temperature Range Modifier Type
  ,                                       ! Dry-Bulb Temperature Range Modifier Schedule Name
  ASHRAETau,                              ! Solar Model Indicator
  ,                                       ! Beam Solar Day Schedule Name
  ,                                       ! Diffuse Solar Day Schedule Name
  0.422,                                  ! ASHRAE Taub {dimensionless}
  2;                                      ! ASHRAE Taud {dimensionless}

OS:ComponentData,
  {1082ee22-81e3-46cb-b748-4ca09a669c36}, ! Handle
  Component Data 1,                       ! Name
  {f2fa0e7d-7f86-4897-9464-1b31b6795ef7}, ! UUID
  {f5e07daf-b675-44f7-9c1b-cc52a41776cb}, ! Version UUID
  1366306639,                             ! Creation Timestamp
  1366306639,                             ! Version Timestamp
  {d1ae84a6-6e0a-4c2f-aff0-731287981c86}; ! Name of Object 1

