
OS:Version,
  {aa8295c4-8f66-43fb-b597-34a2af88b65d}, ! Handle
  0.9.3;                                  ! Version Identifier

OS:SizingPeriod:DesignDay,
  {5d3027c2-eea1-469c-9a60-7810a2701923}, ! Handle
  Burns Municipal Arpt  Uo Ann Htg Wind 99% Condns WS=>MCDB, ! Name
  2.8,                                    ! Maximum Dry-Bulb Temperature {C}
  0,                                      ! Daily Dry-Bulb Temperature Range {deltaC}
  2.8,                                    ! Humidity Indicating Conditions at Maximum Dry-Bulb {BasedOnField A3}
  86959,                                  ! Barometric Pressure {Pa}
  9.4,                                    ! Wind Speed {m/s}
  310,                                    ! Wind Direction {deg}
  0,                                      ! Sky Clearness
  0,                                      ! Rain Indicator
  0,                                      ! Snow Indicator
  21,                                     ! Day of Month
  12,                                     ! Month
  WinterDesignDay,                        ! Day Type
  0,                                      ! Daylight Saving Time Indicator
  Wetbulb,                                ! Humidity Indicating Type
  ,                                       ! Humidity Indicating Day Schedule Name
  DefaultMultipliers,                     ! Dry-Bulb Temperature Range Modifier Type
  ,                                       ! Dry-Bulb Temperature Range Modifier Schedule Name
  ASHRAEClearSky;                         ! Solar Model Indicator

OS:ComponentData,
  {ecc28b56-ba6b-43ac-9771-1f38ab5ea8c2}, ! Handle
  Component Data 1,                       ! Name
  {c809a7ff-4cf4-46a9-9e09-f23170b77677}, ! UUID
  {e91d82b3-db62-47d3-b985-3c572c77658d}, ! Version UUID
  1366309995,                             ! Creation Timestamp
  1366309995,                             ! Version Timestamp
  {5d3027c2-eea1-469c-9a60-7810a2701923}; ! Name of Object 1

