
OS:Version,
  {486b08ed-527d-479d-92fa-ec1fa2f745be}, ! Handle
  0.9.3;                                  ! Version Identifier

OS:SizingPeriod:DesignDay,
  {29047329-475f-4ca7-ace4-ab7a141752d9}, ! Handle
  Juneau Ann Clg 2% Condns WB=>MDB,       ! Name
  18,                                     ! Maximum Dry-Bulb Temperature {C}
  7.3,                                    ! Daily Dry-Bulb Temperature Range {deltaC}
  14.5,                                   ! Humidity Indicating Conditions at Maximum Dry-Bulb {BasedOnField A3}
  101289,                                 ! Barometric Pressure {Pa}
  3.7,                                    ! Wind Speed {m/s}
  230,                                    ! Wind Direction {deg}
  0,                                      ! Sky Clearness
  0,                                      ! Rain Indicator
  0,                                      ! Snow Indicator
  21,                                     ! Day of Month
  7,                                      ! Month
  SummerDesignDay,                        ! Day Type
  0,                                      ! Daylight Saving Time Indicator
  Wetbulb,                                ! Humidity Indicating Type
  ,                                       ! Humidity Indicating Day Schedule Name
  DefaultMultipliers,                     ! Dry-Bulb Temperature Range Modifier Type
  ,                                       ! Dry-Bulb Temperature Range Modifier Schedule Name
  ASHRAETau,                              ! Solar Model Indicator
  ,                                       ! Beam Solar Day Schedule Name
  ,                                       ! Diffuse Solar Day Schedule Name
  0.43,                                   ! ASHRAE Taub {dimensionless}
  1.968;                                  ! ASHRAE Taud {dimensionless}

OS:ComponentData,
  {581f11a0-3361-4f3f-897d-26274afb4b98}, ! Handle
  Component Data 1,                       ! Name
  {806b9665-bf4a-45ec-9f4a-19ade3ad8eff}, ! UUID
  {10377858-47fc-487e-b64f-12530b25da46}, ! Version UUID
  1366305333,                             ! Creation Timestamp
  1366305333,                             ! Version Timestamp
  {29047329-475f-4ca7-ace4-ab7a141752d9}; ! Name of Object 1

