
OS:Version,
  {7b91b9c2-41e9-447b-9be7-b17522ac527e}, ! Handle
  0.9.3;                                  ! Version Identifier

OS:SizingPeriod:DesignDay,
  {7f2d7c62-f6e5-4765-a575-4b042c1e5bf3}, ! Handle
  Houghton Lake Roscommon Co Ar Ann Clg 1% Condns DP=>MDB, ! Name
  25.2,                                   ! Maximum Dry-Bulb Temperature {C}
  12.8,                                   ! Daily Dry-Bulb Temperature Range {deltaC}
  20.9,                                   ! Humidity Indicating Conditions at Maximum Dry-Bulb {BasedOnField A3}
  97179,                                  ! Barometric Pressure {Pa}
  4.2,                                    ! Wind Speed {m/s}
  240,                                    ! Wind Direction {deg}
  0,                                      ! Sky Clearness
  0,                                      ! Rain Indicator
  0,                                      ! Snow Indicator
  21,                                     ! Day of Month
  7,                                      ! Month
  SummerDesignDay,                        ! Day Type
  0,                                      ! Daylight Saving Time Indicator
  Dewpoint,                               ! Humidity Indicating Type
  ,                                       ! Humidity Indicating Day Schedule Name
  DefaultMultipliers,                     ! Dry-Bulb Temperature Range Modifier Type
  ,                                       ! Dry-Bulb Temperature Range Modifier Schedule Name
  ASHRAETau,                              ! Solar Model Indicator
  ,                                       ! Beam Solar Day Schedule Name
  ,                                       ! Diffuse Solar Day Schedule Name
  0.413,                                  ! ASHRAE Taub {dimensionless}
  2.189;                                  ! ASHRAE Taud {dimensionless}

OS:ComponentData,
  {4b48721e-97e9-46ff-a5ad-4060f68b2028}, ! Handle
  Component Data 1,                       ! Name
  {9e3f8518-f9ec-47c3-b3b2-b734c8bb8370}, ! UUID
  {8ef00ce2-f2d4-45aa-8bca-b62f035e5d4a}, ! Version UUID
  1366308026,                             ! Creation Timestamp
  1366308026,                             ! Version Timestamp
  {7f2d7c62-f6e5-4765-a575-4b042c1e5bf3}; ! Name of Object 1

