
OS:Version,
  {3cb0427f-61b9-4c51-a847-cbd33ca7cb68}, ! Handle
  0.9.3;                                  ! Version Identifier

OS:SizingPeriod:DesignDay,
  {32969a96-3f6d-4262-ada8-3d0ed2b47293}, ! Handle
  Draughon Miller Cen Ann Hum_n 99% Condns DP=>MCDB, ! Name
  2.7,                                    ! Maximum Dry-Bulb Temperature {C}
  0,                                      ! Daily Dry-Bulb Temperature Range {deltaC}
  -8.8,                                   ! Humidity Indicating Conditions at Maximum Dry-Bulb {BasedOnField A3}
  98792,                                  ! Barometric Pressure {Pa}
  4.2,                                    ! Wind Speed {m/s}
  0,                                      ! Wind Direction {deg}
  0,                                      ! Sky Clearness
  0,                                      ! Rain Indicator
  0,                                      ! Snow Indicator
  21,                                     ! Day of Month
  1,                                      ! Month
  WinterDesignDay,                        ! Day Type
  0,                                      ! Daylight Saving Time Indicator
  Dewpoint,                               ! Humidity Indicating Type
  ,                                       ! Humidity Indicating Day Schedule Name
  DefaultMultipliers,                     ! Dry-Bulb Temperature Range Modifier Type
  ,                                       ! Dry-Bulb Temperature Range Modifier Schedule Name
  ASHRAEClearSky;                         ! Solar Model Indicator

OS:ComponentData,
  {a3b77966-172f-4f5b-8756-b98a8d015d1c}, ! Handle
  Component Data 1,                       ! Name
  {fa1796fb-2f5d-4df8-9975-299d17f2d479}, ! UUID
  {e887254b-a06f-4d89-8075-85696d6685dc}, ! Version UUID
  1366310680,                             ! Creation Timestamp
  1366310680,                             ! Version Timestamp
  {32969a96-3f6d-4262-ada8-3d0ed2b47293}; ! Name of Object 1

