
OS:Version,
  {15701836-e246-46fb-aa46-7cbf08da4ef3}, ! Handle
  0.9.3;                                  ! Version Identifier

OS:SizingPeriod:DesignDay,
  {a8e1c5b2-ee13-4768-ab08-a95be1bd6a41}, ! Handle
  Gainesville Regional Ap Ann Clg 1% Condns Enth=>MDB, ! Name
  30.8,                                   ! Maximum Dry-Bulb Temperature {C}
  10.2,                                   ! Daily Dry-Bulb Temperature Range {deltaC}
  80400,                                  ! Humidity Indicating Conditions at Maximum Dry-Bulb {BasedOnField A3}
  100833,                                 ! Barometric Pressure {Pa}
  3.7,                                    ! Wind Speed {m/s}
  270,                                    ! Wind Direction {deg}
  0,                                      ! Sky Clearness
  0,                                      ! Rain Indicator
  0,                                      ! Snow Indicator
  21,                                     ! Day of Month
  7,                                      ! Month
  SummerDesignDay,                        ! Day Type
  0,                                      ! Daylight Saving Time Indicator
  Enthalpy,                               ! Humidity Indicating Type
  ,                                       ! Humidity Indicating Day Schedule Name
  DefaultMultipliers,                     ! Dry-Bulb Temperature Range Modifier Type
  ,                                       ! Dry-Bulb Temperature Range Modifier Schedule Name
  ASHRAETau,                              ! Solar Model Indicator
  ,                                       ! Beam Solar Day Schedule Name
  ,                                       ! Diffuse Solar Day Schedule Name
  0.528,                                  ! ASHRAE Taub {dimensionless}
  1.887;                                  ! ASHRAE Taud {dimensionless}

OS:ComponentData,
  {0b83ece7-122e-4c76-9b2f-5a92123357b7}, ! Handle
  Component Data 1,                       ! Name
  {dc209780-5857-48ad-b56f-6dd0396bcb1c}, ! UUID
  {ea847764-a09d-4f01-b777-b9bb6b0a506e}, ! Version UUID
  1366306810,                             ! Creation Timestamp
  1366306810,                             ! Version Timestamp
  {a8e1c5b2-ee13-4768-ab08-a95be1bd6a41}; ! Name of Object 1

