
OS:Version,
  {35e08210-133e-4744-9258-75b09fa4bc66}, ! Handle
  0.9.3;                                  ! Version Identifier

OS:SizingPeriod:DesignDay,
  {5f0144a1-eeba-45a7-9406-e7753712fae3}, ! Handle
  ATLANTA Ann Htg Wind 99.6% Condns WS=>MCDB, ! Name
  3,                                      ! Maximum Dry-Bulb Temperature {C}
  0,                                      ! Daily Dry-Bulb Temperature Range {deltaC}
  3,                                      ! Humidity Indicating Conditions at Maximum Dry-Bulb {BasedOnField A3}
  97598,                                  ! Barometric Pressure {Pa}
  11.4,                                   ! Wind Speed {m/s}
  320,                                    ! Wind Direction {deg}
  0,                                      ! Sky Clearness
  0,                                      ! Rain Indicator
  0,                                      ! Snow Indicator
  21,                                     ! Day of Month
  1,                                      ! Month
  WinterDesignDay,                        ! Day Type
  0,                                      ! Daylight Saving Time Indicator
  Wetbulb,                                ! Humidity Indicating Type
  ,                                       ! Humidity Indicating Day Schedule Name
  DefaultMultipliers,                     ! Dry-Bulb Temperature Range Modifier Type
  ,                                       ! Dry-Bulb Temperature Range Modifier Schedule Name
  ASHRAEClearSky;                         ! Solar Model Indicator

OS:ComponentData,
  {12214f47-7f1a-4532-9b39-6774f279093c}, ! Handle
  Component Data 1,                       ! Name
  {382a6efd-fe31-4df5-ab9c-397d71fcfa42}, ! UUID
  {4abbb840-a0eb-40fe-b3d1-bd2572968e75}, ! Version UUID
  1366306981,                             ! Creation Timestamp
  1366306981,                             ! Version Timestamp
  {5f0144a1-eeba-45a7-9406-e7753712fae3}; ! Name of Object 1

