
OS:Version,
  {cbd2f2f8-1783-4239-8715-a41620245ecc}, ! Handle
  0.9.3;                                  ! Version Identifier

OS:SizingPeriod:DesignDay,
  {427185ec-dc02-49a3-ac5f-9a18bd9eceb3}, ! Handle
  Iliamna Arpt Ann Clg 1% Condns DB=>MWB, ! Name
  19.5,                                   ! Maximum Dry-Bulb Temperature {C}
  7,                                      ! Daily Dry-Bulb Temperature Range {deltaC}
  13.6,                                   ! Humidity Indicating Conditions at Maximum Dry-Bulb {BasedOnField A3}
  100642,                                 ! Barometric Pressure {Pa}
  4.3,                                    ! Wind Speed {m/s}
  210,                                    ! Wind Direction {deg}
  0,                                      ! Sky Clearness
  0,                                      ! Rain Indicator
  0,                                      ! Snow Indicator
  21,                                     ! Day of Month
  7,                                      ! Month
  SummerDesignDay,                        ! Day Type
  0,                                      ! Daylight Saving Time Indicator
  Wetbulb,                                ! Humidity Indicating Type
  ,                                       ! Humidity Indicating Day Schedule Name
  DefaultMultipliers,                     ! Dry-Bulb Temperature Range Modifier Type
  ,                                       ! Dry-Bulb Temperature Range Modifier Schedule Name
  ASHRAETau,                              ! Solar Model Indicator
  ,                                       ! Beam Solar Day Schedule Name
  ,                                       ! Diffuse Solar Day Schedule Name
  0.384,                                  ! ASHRAE Taub {dimensionless}
  2.215;                                  ! ASHRAE Taud {dimensionless}

OS:ComponentData,
  {89621c6a-44bd-46a1-9faf-0040e5fccbd6}, ! Handle
  Component Data 1,                       ! Name
  {ae57675f-dc40-402d-9e15-2d0e734ee48c}, ! UUID
  {2b00bf65-2f95-4554-9ee7-cf9618730877}, ! Version UUID
  1366305325,                             ! Creation Timestamp
  1366305325,                             ! Version Timestamp
  {427185ec-dc02-49a3-ac5f-9a18bd9eceb3}; ! Name of Object 1

