
OS:Version,
  {9dfb731a-5fda-4470-a22d-afd298d54694}, ! Handle
  0.9.3;                                  ! Version Identifier

OS:SizingPeriod:DesignDay,
  {7371a41a-e065-4c1a-a025-9517b01d2e5d}, ! Handle
  Fort Myers Page Field Ann Clg 2% Condns Enth=>MDB, ! Name
  30.5,                                   ! Maximum Dry-Bulb Temperature {C}
  9,                                      ! Daily Dry-Bulb Temperature Range {deltaC}
  81000,                                  ! Humidity Indicating Conditions at Maximum Dry-Bulb {BasedOnField A3}
  101265,                                 ! Barometric Pressure {Pa}
  3.8,                                    ! Wind Speed {m/s}
  70,                                     ! Wind Direction {deg}
  0,                                      ! Sky Clearness
  0,                                      ! Rain Indicator
  0,                                      ! Snow Indicator
  21,                                     ! Day of Month
  8,                                      ! Month
  SummerDesignDay,                        ! Day Type
  0,                                      ! Daylight Saving Time Indicator
  Enthalpy,                               ! Humidity Indicating Type
  ,                                       ! Humidity Indicating Day Schedule Name
  DefaultMultipliers,                     ! Dry-Bulb Temperature Range Modifier Type
  ,                                       ! Dry-Bulb Temperature Range Modifier Schedule Name
  ASHRAETau,                              ! Solar Model Indicator
  ,                                       ! Beam Solar Day Schedule Name
  ,                                       ! Diffuse Solar Day Schedule Name
  0.488,                                  ! ASHRAE Taub {dimensionless}
  2.035;                                  ! ASHRAE Taud {dimensionless}

OS:ComponentData,
  {a7003b7e-276f-4434-9cb6-b48749915575}, ! Handle
  Component Data 1,                       ! Name
  {6a967a4f-fc18-482c-8871-545c472a8625}, ! UUID
  {ece16377-cdea-4061-9895-f2338ad0d4a8}, ! Version UUID
  1366306802,                             ! Creation Timestamp
  1366306802,                             ! Version Timestamp
  {7371a41a-e065-4c1a-a025-9517b01d2e5d}; ! Name of Object 1

