
OS:Version,
  {872e665d-f0d3-4099-814d-9519eef793fd}, ! Handle
  0.9.3;                                  ! Version Identifier

OS:SizingPeriod:DesignDay,
  {7a9884f0-9a22-4cf9-96cc-504c63c7386f}, ! Handle
  Astoria Ann Clg 1% Condns WB=>MDB,      ! Name
  21.4,                                   ! Maximum Dry-Bulb Temperature {C}
  7.9,                                    ! Daily Dry-Bulb Temperature Range {deltaC}
  17.4,                                   ! Humidity Indicating Conditions at Maximum Dry-Bulb {BasedOnField A3}
  101241,                                 ! Barometric Pressure {Pa}
  5.1,                                    ! Wind Speed {m/s}
  310,                                    ! Wind Direction {deg}
  0,                                      ! Sky Clearness
  0,                                      ! Rain Indicator
  0,                                      ! Snow Indicator
  21,                                     ! Day of Month
  8,                                      ! Month
  SummerDesignDay,                        ! Day Type
  0,                                      ! Daylight Saving Time Indicator
  Wetbulb,                                ! Humidity Indicating Type
  ,                                       ! Humidity Indicating Day Schedule Name
  DefaultMultipliers,                     ! Dry-Bulb Temperature Range Modifier Type
  ,                                       ! Dry-Bulb Temperature Range Modifier Schedule Name
  ASHRAETau,                              ! Solar Model Indicator
  ,                                       ! Beam Solar Day Schedule Name
  ,                                       ! Diffuse Solar Day Schedule Name
  0.355,                                  ! ASHRAE Taub {dimensionless}
  2.571;                                  ! ASHRAE Taud {dimensionless}

OS:ComponentData,
  {f762f1e5-5afa-4d36-a88c-dac914f94f2c}, ! Handle
  Component Data 1,                       ! Name
  {30e60afd-3cce-4dff-8f26-1199a85dc220}, ! UUID
  {ed21a563-c3d1-4746-9dea-c0c38d106a49}, ! Version UUID
  1366309972,                             ! Creation Timestamp
  1366309972,                             ! Version Timestamp
  {7a9884f0-9a22-4cf9-96cc-504c63c7386f}; ! Name of Object 1

