
OS:Version,
  {e738ed17-0ac1-4a75-a387-a1fdaad5271c}, ! Handle
  0.9.3;                                  ! Version Identifier

OS:SizingPeriod:DesignDay,
  {80168435-6892-4f5f-b95b-edf4b6d9c7dd}, ! Handle
  ATHENS Ann Clg .4% Condns WB=>MDB,      ! Name
  31.9,                                   ! Maximum Dry-Bulb Temperature {C}
  10.8,                                   ! Daily Dry-Bulb Temperature Range {deltaC}
  25.6,                                   ! Humidity Indicating Conditions at Maximum Dry-Bulb {BasedOnField A3}
  98428,                                  ! Barometric Pressure {Pa}
  3.5,                                    ! Wind Speed {m/s}
  270,                                    ! Wind Direction {deg}
  0,                                      ! Sky Clearness
  0,                                      ! Rain Indicator
  0,                                      ! Snow Indicator
  21,                                     ! Day of Month
  7,                                      ! Month
  SummerDesignDay,                        ! Day Type
  0,                                      ! Daylight Saving Time Indicator
  Wetbulb,                                ! Humidity Indicating Type
  ,                                       ! Humidity Indicating Day Schedule Name
  DefaultMultipliers,                     ! Dry-Bulb Temperature Range Modifier Type
  ,                                       ! Dry-Bulb Temperature Range Modifier Schedule Name
  ASHRAETau,                              ! Solar Model Indicator
  ,                                       ! Beam Solar Day Schedule Name
  ,                                       ! Diffuse Solar Day Schedule Name
  0.539,                                  ! ASHRAE Taub {dimensionless}
  1.828;                                  ! ASHRAE Taud {dimensionless}

OS:ComponentData,
  {a019fde8-e398-419a-a8b4-28a719fd91cc}, ! Handle
  Component Data 1,                       ! Name
  {25f9d37a-009c-4209-9bee-e12a7c326bd7}, ! UUID
  {80a81164-d781-4a8f-a0f0-ee0b8844fac9}, ! Version UUID
  1366306969,                             ! Creation Timestamp
  1366306969,                             ! Version Timestamp
  {80168435-6892-4f5f-b95b-edf4b6d9c7dd}; ! Name of Object 1

