
OS:Version,
  {2553efda-0663-4c60-9434-5df3070bf297}, ! Handle
  0.9.3;                                  ! Version Identifier

OS:SizingPeriod:DesignDay,
  {389428b9-7eb7-4b75-bb21-67bcd97da4cf}, ! Handle
  Chariton Ann Clg 2% Condns Enth=>MDB,   ! Name
  30.1,                                   ! Maximum Dry-Bulb Temperature {C}
  10.3,                                   ! Daily Dry-Bulb Temperature Range {deltaC}
  80600,                                  ! Humidity Indicating Conditions at Maximum Dry-Bulb {BasedOnField A3}
  97539,                                  ! Barometric Pressure {Pa}
  4.5,                                    ! Wind Speed {m/s}
  200,                                    ! Wind Direction {deg}
  0,                                      ! Sky Clearness
  0,                                      ! Rain Indicator
  0,                                      ! Snow Indicator
  21,                                     ! Day of Month
  7,                                      ! Month
  SummerDesignDay,                        ! Day Type
  0,                                      ! Daylight Saving Time Indicator
  Enthalpy,                               ! Humidity Indicating Type
  ,                                       ! Humidity Indicating Day Schedule Name
  DefaultMultipliers,                     ! Dry-Bulb Temperature Range Modifier Type
  ,                                       ! Dry-Bulb Temperature Range Modifier Schedule Name
  ASHRAETau,                              ! Solar Model Indicator
  ,                                       ! Beam Solar Day Schedule Name
  ,                                       ! Diffuse Solar Day Schedule Name
  0.431,                                  ! ASHRAE Taub {dimensionless}
  2.145;                                  ! ASHRAE Taud {dimensionless}

OS:ComponentData,
  {62514143-ee80-4a7d-9671-d0a8ff70738b}, ! Handle
  Component Data 1,                       ! Name
  {9cb93fb6-eaec-44fe-94c5-29ac8c0dd3f9}, ! UUID
  {92634ff0-fb62-49a3-b5f9-209678537448}, ! Version UUID
  1366307153,                             ! Creation Timestamp
  1366307153,                             ! Version Timestamp
  {389428b9-7eb7-4b75-bb21-67bcd97da4cf}; ! Name of Object 1

