
OS:Version,
  {0caf68ad-21a5-4beb-94d3-ad5de6c04c76}, ! Handle
  0.9.3;                                  ! Version Identifier

OS:SizingPeriod:DesignDay,
  {c7b85178-99e7-4d20-a416-3342a1140476}, ! Handle
  Great Bend  Awos Ann Clg 1% Condns DP=>MDB, ! Name
  27.6,                                   ! Maximum Dry-Bulb Temperature {C}
  13.2,                                   ! Daily Dry-Bulb Temperature Range {deltaC}
  21.2,                                   ! Humidity Indicating Conditions at Maximum Dry-Bulb {BasedOnField A3}
  94605,                                  ! Barometric Pressure {Pa}
  7.4,                                    ! Wind Speed {m/s}
  190,                                    ! Wind Direction {deg}
  0,                                      ! Sky Clearness
  0,                                      ! Rain Indicator
  0,                                      ! Snow Indicator
  21,                                     ! Day of Month
  7,                                      ! Month
  SummerDesignDay,                        ! Day Type
  0,                                      ! Daylight Saving Time Indicator
  Dewpoint,                               ! Humidity Indicating Type
  ,                                       ! Humidity Indicating Day Schedule Name
  DefaultMultipliers,                     ! Dry-Bulb Temperature Range Modifier Type
  ,                                       ! Dry-Bulb Temperature Range Modifier Schedule Name
  ASHRAETau,                              ! Solar Model Indicator
  ,                                       ! Beam Solar Day Schedule Name
  ,                                       ! Diffuse Solar Day Schedule Name
  0.423,                                  ! ASHRAE Taub {dimensionless}
  2.152;                                  ! ASHRAE Taud {dimensionless}

OS:ComponentData,
  {98fbf10d-8e45-4621-99ca-b018daaf068d}, ! Handle
  Component Data 1,                       ! Name
  {b6f34d5a-5471-4b4d-a66a-b27f42983756}, ! UUID
  {8cdc8a24-0f27-48ef-ae04-a905fd5f715d}, ! Version UUID
  1366307542,                             ! Creation Timestamp
  1366307542,                             ! Version Timestamp
  {c7b85178-99e7-4d20-a416-3342a1140476}; ! Name of Object 1

