
OS:Version,
  {ac34e360-2662-4769-9f5e-acc0b595d7d6}, ! Handle
  0.9.3;                                  ! Version Identifier

OS:SizingPeriod:DesignDay,
  {13fa7f50-73ba-4c99-bb88-d459f5bdf8ea}, ! Handle
  Greensboro Piedmont Triad Int Ann Clg 2% Condns WB=>MDB, ! Name
  29,                                     ! Maximum Dry-Bulb Temperature {C}
  9.9,                                    ! Daily Dry-Bulb Temperature Range {deltaC}
  23.8,                                   ! Humidity Indicating Conditions at Maximum Dry-Bulb {BasedOnField A3}
  98088,                                  ! Barometric Pressure {Pa}
  3.4,                                    ! Wind Speed {m/s}
  230,                                    ! Wind Direction {deg}
  0,                                      ! Sky Clearness
  0,                                      ! Rain Indicator
  0,                                      ! Snow Indicator
  21,                                     ! Day of Month
  7,                                      ! Month
  SummerDesignDay,                        ! Day Type
  0,                                      ! Daylight Saving Time Indicator
  Wetbulb,                                ! Humidity Indicating Type
  ,                                       ! Humidity Indicating Day Schedule Name
  DefaultMultipliers,                     ! Dry-Bulb Temperature Range Modifier Type
  ,                                       ! Dry-Bulb Temperature Range Modifier Schedule Name
  ASHRAETau,                              ! Solar Model Indicator
  ,                                       ! Beam Solar Day Schedule Name
  ,                                       ! Diffuse Solar Day Schedule Name
  0.557,                                  ! ASHRAE Taub {dimensionless}
  1.757;                                  ! ASHRAE Taud {dimensionless}

OS:ComponentData,
  {efa47c95-bf54-4b6c-b33e-970b233f5f90}, ! Handle
  Component Data 1,                       ! Name
  {11e685fa-5c5a-48aa-8b8d-bb2e629bcc93}, ! UUID
  {a4b8a1a9-3e9e-4101-a20e-c5c37d5836d4}, ! Version UUID
  1366308933,                             ! Creation Timestamp
  1366308933,                             ! Version Timestamp
  {13fa7f50-73ba-4c99-bb88-d459f5bdf8ea}; ! Name of Object 1

