
OS:Version,
  {15a06f30-40fd-4917-9db5-b28bdd2ac1d2}, ! Handle
  0.9.3;                                  ! Version Identifier

OS:SizingPeriod:DesignDay,
  {6f8dc441-986d-498b-aaa6-ec077dc224d6}, ! Handle
  Fremont Muni Arpt Ann Clg 1% Condns DB=>MWB, ! Name
  32.6,                                   ! Maximum Dry-Bulb Temperature {C}
  10.5,                                   ! Daily Dry-Bulb Temperature Range {deltaC}
  23.1,                                   ! Humidity Indicating Conditions at Maximum Dry-Bulb {BasedOnField A3}
  96854,                                  ! Barometric Pressure {Pa}
  5.4,                                    ! Wind Speed {m/s}
  170,                                    ! Wind Direction {deg}
  0,                                      ! Sky Clearness
  0,                                      ! Rain Indicator
  0,                                      ! Snow Indicator
  21,                                     ! Day of Month
  7,                                      ! Month
  SummerDesignDay,                        ! Day Type
  0,                                      ! Daylight Saving Time Indicator
  Wetbulb,                                ! Humidity Indicating Type
  ,                                       ! Humidity Indicating Day Schedule Name
  DefaultMultipliers,                     ! Dry-Bulb Temperature Range Modifier Type
  ,                                       ! Dry-Bulb Temperature Range Modifier Schedule Name
  ASHRAETau,                              ! Solar Model Indicator
  ,                                       ! Beam Solar Day Schedule Name
  ,                                       ! Diffuse Solar Day Schedule Name
  0.415,                                  ! ASHRAE Taub {dimensionless}
  2.218;                                  ! ASHRAE Taud {dimensionless}

OS:ComponentData,
  {6d194e6e-e74c-4289-b712-732f5491fe3a}, ! Handle
  Component Data 1,                       ! Name
  {3d23f1d8-6997-4908-8cc4-38cbace4479d}, ! UUID
  {e1237df8-6c71-4564-b77f-2fa72f8c3c6b}, ! Version UUID
  1366309104,                             ! Creation Timestamp
  1366309104,                             ! Version Timestamp
  {6f8dc441-986d-498b-aaa6-ec077dc224d6}; ! Name of Object 1

