
OS:Version,
  {ce1903a3-35f8-4211-9fc5-2c63227090c5}, ! Handle
  0.9.3;                                  ! Version Identifier

OS:SizingPeriod:DesignDay,
  {117a6591-94ae-4c62-80f3-84705be5c0e5}, ! Handle
  Fosston Awos Ann Clg 1% Condns Enth=>MDB, ! Name
  26.6,                                   ! Maximum Dry-Bulb Temperature {C}
  10.6,                                   ! Daily Dry-Bulb Temperature Range {deltaC}
  66200,                                  ! Humidity Indicating Conditions at Maximum Dry-Bulb {BasedOnField A3}
  96750,                                  ! Barometric Pressure {Pa}
  5.4,                                    ! Wind Speed {m/s}
  160,                                    ! Wind Direction {deg}
  0,                                      ! Sky Clearness
  0,                                      ! Rain Indicator
  0,                                      ! Snow Indicator
  21,                                     ! Day of Month
  7,                                      ! Month
  SummerDesignDay,                        ! Day Type
  0,                                      ! Daylight Saving Time Indicator
  Enthalpy,                               ! Humidity Indicating Type
  ,                                       ! Humidity Indicating Day Schedule Name
  DefaultMultipliers,                     ! Dry-Bulb Temperature Range Modifier Type
  ,                                       ! Dry-Bulb Temperature Range Modifier Schedule Name
  ASHRAETau,                              ! Solar Model Indicator
  ,                                       ! Beam Solar Day Schedule Name
  ,                                       ! Diffuse Solar Day Schedule Name
  0.389,                                  ! ASHRAE Taub {dimensionless}
  2.278;                                  ! ASHRAE Taud {dimensionless}

OS:ComponentData,
  {7c86a2f3-1da2-49b1-8a0b-a8d539ca18dc}, ! Handle
  Component Data 1,                       ! Name
  {a97d2fb5-882c-4a86-80b3-2290385b5de1}, ! UUID
  {ebcd6b72-5fe1-443e-8b1f-77317242a1d0}, ! Version UUID
  1366308239,                             ! Creation Timestamp
  1366308239,                             ! Version Timestamp
  {117a6591-94ae-4c62-80f3-84705be5c0e5}; ! Name of Object 1

