
OS:Version,
  {39f3f65c-037a-4e29-aa9a-b47e82790a55}, ! Handle
  0.9.3;                                  ! Version Identifier

OS:SizingPeriod:DesignDay,
  {492dda04-5e50-40c6-a7d6-bff3b83f529f}, ! Handle
  AUGUSTA Ann Clg 2% Condns DP=>MDB,      ! Name
  27.6,                                   ! Maximum Dry-Bulb Temperature {C}
  11.7,                                   ! Daily Dry-Bulb Temperature Range {deltaC}
  23.7,                                   ! Humidity Indicating Conditions at Maximum Dry-Bulb {BasedOnField A3}
  100786,                                 ! Barometric Pressure {Pa}
  3.8,                                    ! Wind Speed {m/s}
  240,                                    ! Wind Direction {deg}
  0,                                      ! Sky Clearness
  0,                                      ! Rain Indicator
  0,                                      ! Snow Indicator
  21,                                     ! Day of Month
  7,                                      ! Month
  SummerDesignDay,                        ! Day Type
  0,                                      ! Daylight Saving Time Indicator
  Dewpoint,                               ! Humidity Indicating Type
  ,                                       ! Humidity Indicating Day Schedule Name
  DefaultMultipliers,                     ! Dry-Bulb Temperature Range Modifier Type
  ,                                       ! Dry-Bulb Temperature Range Modifier Schedule Name
  ASHRAETau,                              ! Solar Model Indicator
  ,                                       ! Beam Solar Day Schedule Name
  ,                                       ! Diffuse Solar Day Schedule Name
  0.559,                                  ! ASHRAE Taub {dimensionless}
  1.788;                                  ! ASHRAE Taud {dimensionless}

OS:ComponentData,
  {e1bc13a5-6a8c-4395-bc18-500534396867}, ! Handle
  Component Data 1,                       ! Name
  {770ec182-03ba-4c46-ba5d-fcdbeac25adb}, ! UUID
  {6b03a912-0d7d-4916-9354-ba5b54ea7344}, ! Version UUID
  1366306993,                             ! Creation Timestamp
  1366306993,                             ! Version Timestamp
  {492dda04-5e50-40c6-a7d6-bff3b83f529f}; ! Name of Object 1

