
OS:Version,
  {1faafb10-6950-45c8-b133-e8be3079441d}, ! Handle
  0.9.3;                                  ! Version Identifier

OS:SizingPeriod:DesignDay,
  {2a534a12-ceee-4e1f-b997-03199948b015}, ! Handle
  LAS_VEGAS Ann Clg .4% Condns WB=>MDB,   ! Name
  35.7,                                   ! Maximum Dry-Bulb Temperature {C}
  13,                                     ! Daily Dry-Bulb Temperature Range {deltaC}
  22.6,                                   ! Humidity Indicating Conditions at Maximum Dry-Bulb {BasedOnField A3}
  93598,                                  ! Barometric Pressure {Pa}
  4.9,                                    ! Wind Speed {m/s}
  230,                                    ! Wind Direction {deg}
  0,                                      ! Sky Clearness
  0,                                      ! Rain Indicator
  0,                                      ! Snow Indicator
  21,                                     ! Day of Month
  7,                                      ! Month
  SummerDesignDay,                        ! Day Type
  0,                                      ! Daylight Saving Time Indicator
  Wetbulb,                                ! Humidity Indicating Type
  ,                                       ! Humidity Indicating Day Schedule Name
  DefaultMultipliers,                     ! Dry-Bulb Temperature Range Modifier Type
  ,                                       ! Dry-Bulb Temperature Range Modifier Schedule Name
  ASHRAETau,                              ! Solar Model Indicator
  ,                                       ! Beam Solar Day Schedule Name
  ,                                       ! Diffuse Solar Day Schedule Name
  0.55,                                   ! ASHRAE Taub {dimensionless}
  1.674;                                  ! ASHRAE Taud {dimensionless}

OS:ComponentData,
  {6ca8fca3-5009-4333-927e-9c250ca30ae6}, ! Handle
  Component Data 1,                       ! Name
  {12991d56-23d7-49f8-ae49-1bacc8952564}, ! UUID
  {2bd619ee-ff9d-4718-bb60-1a74e8d1054d}, ! Version UUID
  1366309507,                             ! Creation Timestamp
  1366309507,                             ! Version Timestamp
  {2a534a12-ceee-4e1f-b997-03199948b015}; ! Name of Object 1

