
OS:Version,
  {dcac1a35-3227-41c9-ad74-d980468cfe60}, ! Handle
  0.9.3;                                  ! Version Identifier

OS:SizingPeriod:DesignDay,
  {636d8db1-4144-4469-b6e6-344d9fed35a6}, ! Handle
  KAHULUI Ann Clg 2% Condns Enth=>MDB,    ! Name
  29,                                     ! Maximum Dry-Bulb Temperature {C}
  8.3,                                    ! Daily Dry-Bulb Temperature Range {deltaC}
  72400,                                  ! Humidity Indicating Conditions at Maximum Dry-Bulb {BasedOnField A3}
  101145,                                 ! Barometric Pressure {Pa}
  7.9,                                    ! Wind Speed {m/s}
  60,                                     ! Wind Direction {deg}
  0,                                      ! Sky Clearness
  0,                                      ! Rain Indicator
  0,                                      ! Snow Indicator
  21,                                     ! Day of Month
  8,                                      ! Month
  SummerDesignDay,                        ! Day Type
  0,                                      ! Daylight Saving Time Indicator
  Enthalpy,                               ! Humidity Indicating Type
  ,                                       ! Humidity Indicating Day Schedule Name
  DefaultMultipliers,                     ! Dry-Bulb Temperature Range Modifier Type
  ,                                       ! Dry-Bulb Temperature Range Modifier Schedule Name
  ASHRAETau,                              ! Solar Model Indicator
  ,                                       ! Beam Solar Day Schedule Name
  ,                                       ! Diffuse Solar Day Schedule Name
  0.383,                                  ! ASHRAE Taub {dimensionless}
  2.519;                                  ! ASHRAE Taud {dimensionless}

OS:ComponentData,
  {9936d84c-1c1b-4f0c-a5a8-d22bad008396}, ! Handle
  Component Data 1,                       ! Name
  {ce5d2159-da3f-4bf7-a38b-a5b0e3c8b15e}, ! UUID
  {6820bf27-6e51-45f8-86ac-4d1e6019f285}, ! Version UUID
  1366307098,                             ! Creation Timestamp
  1366307098,                             ! Version Timestamp
  {636d8db1-4144-4469-b6e6-344d9fed35a6}; ! Name of Object 1

