
OS:Version,
  {de07e39c-db48-430d-a79b-12a9fda7ba62}, ! Handle
  0.9.3;                                  ! Version Identifier

OS:SizingPeriod:DesignDay,
  {ace358ae-90aa-4ac4-90e6-302d6e3c8f70}, ! Handle
  Benson Muni Ann Clg 1% Condns DB=>MWB,  ! Name
  31.3,                                   ! Maximum Dry-Bulb Temperature {C}
  12.1,                                   ! Daily Dry-Bulb Temperature Range {deltaC}
  21.9,                                   ! Humidity Indicating Conditions at Maximum Dry-Bulb {BasedOnField A3}
  97574,                                  ! Barometric Pressure {Pa}
  5.8,                                    ! Wind Speed {m/s}
  220,                                    ! Wind Direction {deg}
  0,                                      ! Sky Clearness
  0,                                      ! Rain Indicator
  0,                                      ! Snow Indicator
  21,                                     ! Day of Month
  7,                                      ! Month
  SummerDesignDay,                        ! Day Type
  0,                                      ! Daylight Saving Time Indicator
  Wetbulb,                                ! Humidity Indicating Type
  ,                                       ! Humidity Indicating Day Schedule Name
  DefaultMultipliers,                     ! Dry-Bulb Temperature Range Modifier Type
  ,                                       ! Dry-Bulb Temperature Range Modifier Schedule Name
  ASHRAETau,                              ! Solar Model Indicator
  ,                                       ! Beam Solar Day Schedule Name
  ,                                       ! Diffuse Solar Day Schedule Name
  0.398,                                  ! ASHRAE Taub {dimensionless}
  2.251;                                  ! ASHRAE Taud {dimensionless}

OS:ComponentData,
  {7b081de2-77e8-409e-a37a-227ad27b9d37}, ! Handle
  Component Data 1,                       ! Name
  {07c0b2be-fe1e-490c-8cca-0a4c5ec85b91}, ! UUID
  {45eb9dda-cd5a-46ae-ad8c-b72de1067eb3}, ! Version UUID
  1366308167,                             ! Creation Timestamp
  1366308167,                             ! Version Timestamp
  {ace358ae-90aa-4ac4-90e6-302d6e3c8f70}; ! Name of Object 1

