
OS:Version,
  {deb937fe-90f0-49bf-9711-f505772e7ed9}, ! Handle
  0.9.3;                                  ! Version Identifier

OS:SizingPeriod:DesignDay,
  {437a0d60-40ae-471f-bbfe-202ba6fe091f}, ! Handle
  Albany County Ap Ann Htg 99.6% Condns DB, ! Name
  -18.8,                                  ! Maximum Dry-Bulb Temperature {C}
  0,                                      ! Daily Dry-Bulb Temperature Range {deltaC}
  -18.8,                                  ! Humidity Indicating Conditions at Maximum Dry-Bulb {BasedOnField A3}
  100320,                                 ! Barometric Pressure {Pa}
  2.7,                                    ! Wind Speed {m/s}
  300,                                    ! Wind Direction {deg}
  0,                                      ! Sky Clearness
  0,                                      ! Rain Indicator
  0,                                      ! Snow Indicator
  21,                                     ! Day of Month
  1,                                      ! Month
  WinterDesignDay,                        ! Day Type
  0,                                      ! Daylight Saving Time Indicator
  Wetbulb,                                ! Humidity Indicating Type
  ,                                       ! Humidity Indicating Day Schedule Name
  DefaultMultipliers,                     ! Dry-Bulb Temperature Range Modifier Type
  ,                                       ! Dry-Bulb Temperature Range Modifier Schedule Name
  ASHRAEClearSky;                         ! Solar Model Indicator

OS:ComponentData,
  {129038fe-9f21-4960-a22e-043cb74986c7}, ! Handle
  Component Data 1,                       ! Name
  {4038d160-dbba-4397-b324-b57b0c3d8f1a}, ! UUID
  {3d50398e-c468-40e1-af76-c2b45980d333}, ! Version UUID
  1366309584,                             ! Creation Timestamp
  1366309584,                             ! Version Timestamp
  {437a0d60-40ae-471f-bbfe-202ba6fe091f}; ! Name of Object 1

