
OS:Version,
  {b3b1985d-7822-4258-b55c-e883dda1e44a}, ! Handle
  0.9.3;                                  ! Version Identifier

OS:SizingPeriod:DesignDay,
  {e1a20fe3-05ad-433c-aae0-308ee7fc5361}, ! Handle
  Hallock Ann Clg .4% Condns WB=>MDB,     ! Name
  28.6,                                   ! Maximum Dry-Bulb Temperature {C}
  12.5,                                   ! Daily Dry-Bulb Temperature Range {deltaC}
  24.4,                                   ! Humidity Indicating Conditions at Maximum Dry-Bulb {BasedOnField A3}
  98358,                                  ! Barometric Pressure {Pa}
  5.9,                                    ! Wind Speed {m/s}
  160,                                    ! Wind Direction {deg}
  0,                                      ! Sky Clearness
  0,                                      ! Rain Indicator
  0,                                      ! Snow Indicator
  21,                                     ! Day of Month
  7,                                      ! Month
  SummerDesignDay,                        ! Day Type
  0,                                      ! Daylight Saving Time Indicator
  Wetbulb,                                ! Humidity Indicating Type
  ,                                       ! Humidity Indicating Day Schedule Name
  DefaultMultipliers,                     ! Dry-Bulb Temperature Range Modifier Type
  ,                                       ! Dry-Bulb Temperature Range Modifier Schedule Name
  ASHRAETau,                              ! Solar Model Indicator
  ,                                       ! Beam Solar Day Schedule Name
  ,                                       ! Diffuse Solar Day Schedule Name
  0.405,                                  ! ASHRAE Taub {dimensionless}
  2.208;                                  ! ASHRAE Taud {dimensionless}

OS:ComponentData,
  {9c318090-49d8-42ee-8634-e57787f9a25c}, ! Handle
  Component Data 1,                       ! Name
  {29909267-f475-47c6-a04c-aae49854c662}, ! UUID
  {3d49f3f4-862f-41a2-a755-1bca4b5b9f89}, ! Version UUID
  1366308251,                             ! Creation Timestamp
  1366308251,                             ! Version Timestamp
  {e1a20fe3-05ad-433c-aae0-308ee7fc5361}; ! Name of Object 1

