
OS:Version,
  {3cdde823-e357-41dc-8a7f-8e54fbb7c9e1}, ! Handle
  0.9.3;                                  ! Version Identifier

OS:SizingPeriod:DesignDay,
  {43288af5-4334-4e48-8704-db99c10a50e8}, ! Handle
  Allentown Ann Clg 2% Condns WB=>MDB,    ! Name
  27.6,                                   ! Maximum Dry-Bulb Temperature {C}
  10.7,                                   ! Daily Dry-Bulb Temperature Range {deltaC}
  23.2,                                   ! Humidity Indicating Conditions at Maximum Dry-Bulb {BasedOnField A3}
  99927,                                  ! Barometric Pressure {Pa}
  4.6,                                    ! Wind Speed {m/s}
  240,                                    ! Wind Direction {deg}
  0,                                      ! Sky Clearness
  0,                                      ! Rain Indicator
  0,                                      ! Snow Indicator
  21,                                     ! Day of Month
  7,                                      ! Month
  SummerDesignDay,                        ! Day Type
  0,                                      ! Daylight Saving Time Indicator
  Wetbulb,                                ! Humidity Indicating Type
  ,                                       ! Humidity Indicating Day Schedule Name
  DefaultMultipliers,                     ! Dry-Bulb Temperature Range Modifier Type
  ,                                       ! Dry-Bulb Temperature Range Modifier Schedule Name
  ASHRAETau,                              ! Solar Model Indicator
  ,                                       ! Beam Solar Day Schedule Name
  ,                                       ! Diffuse Solar Day Schedule Name
  0.504,                                  ! ASHRAE Taub {dimensionless}
  1.885;                                  ! ASHRAE Taud {dimensionless}

OS:ComponentData,
  {6bc1e22b-0123-4606-a854-082c58ae0556}, ! Handle
  Component Data 1,                       ! Name
  {d3d5ccb5-4d35-48ea-8cfd-542a26cd1db4}, ! UUID
  {52f7ead1-b7c1-4c44-82c9-70a7f9e8d775}, ! Version UUID
  1366310127,                             ! Creation Timestamp
  1366310127,                             ! Version Timestamp
  {43288af5-4334-4e48-8704-db99c10a50e8}; ! Name of Object 1

