
OS:Version,
  {63366b2b-494f-486a-bb8b-731eedea18e1}, ! Handle
  0.9.3;                                  ! Version Identifier

OS:SizingPeriod:DesignDay,
  {18053286-241e-4bef-b051-e6b40f7c5332}, ! Handle
  Andrews Afb Ann Clg 2% Condns WB=>MDB,  ! Name
  29.1,                                   ! Maximum Dry-Bulb Temperature {C}
  10.3,                                   ! Daily Dry-Bulb Temperature Range {deltaC}
  24.2,                                   ! Humidity Indicating Conditions at Maximum Dry-Bulb {BasedOnField A3}
  100296,                                 ! Barometric Pressure {Pa}
  4.1,                                    ! Wind Speed {m/s}
  230,                                    ! Wind Direction {deg}
  0,                                      ! Sky Clearness
  0,                                      ! Rain Indicator
  0,                                      ! Snow Indicator
  21,                                     ! Day of Month
  7,                                      ! Month
  SummerDesignDay,                        ! Day Type
  0,                                      ! Daylight Saving Time Indicator
  Wetbulb,                                ! Humidity Indicating Type
  ,                                       ! Humidity Indicating Day Schedule Name
  DefaultMultipliers,                     ! Dry-Bulb Temperature Range Modifier Type
  ,                                       ! Dry-Bulb Temperature Range Modifier Schedule Name
  ASHRAETau,                              ! Solar Model Indicator
  ,                                       ! Beam Solar Day Schedule Name
  ,                                       ! Diffuse Solar Day Schedule Name
  0.561,                                  ! ASHRAE Taub {dimensionless}
  1.747;                                  ! ASHRAE Taud {dimensionless}

OS:ComponentData,
  {22820577-0a46-4699-8351-cb92d35bdddb}, ! Handle
  Component Data 1,                       ! Name
  {52b03653-9388-4c69-a83a-8f94d78facc4}, ! UUID
  {e4c24795-3e22-4d0d-a4ee-b3069c75df9a}, ! Version UUID
  1366307834,                             ! Creation Timestamp
  1366307834,                             ! Version Timestamp
  {18053286-241e-4bef-b051-e6b40f7c5332}; ! Name of Object 1

