
OS:Version,
  {d61169c7-8585-4eb3-919b-27858d4d8406}, ! Handle
  0.9.3;                                  ! Version Identifier

OS:SizingPeriod:DesignDay,
  {9993481f-b172-4b80-800f-4fba0763c581}, ! Handle
  COLD_BAY Ann Clg 1% Condns DB=>MWB,     ! Name
  14.1,                                   ! Maximum Dry-Bulb Temperature {C}
  4.4,                                    ! Daily Dry-Bulb Temperature Range {deltaC}
  11.9,                                   ! Humidity Indicating Conditions at Maximum Dry-Bulb {BasedOnField A3}
  100977,                                 ! Barometric Pressure {Pa}
  7,                                      ! Wind Speed {m/s}
  150,                                    ! Wind Direction {deg}
  0,                                      ! Sky Clearness
  0,                                      ! Rain Indicator
  0,                                      ! Snow Indicator
  21,                                     ! Day of Month
  8,                                      ! Month
  SummerDesignDay,                        ! Day Type
  0,                                      ! Daylight Saving Time Indicator
  Wetbulb,                                ! Humidity Indicating Type
  ,                                       ! Humidity Indicating Day Schedule Name
  DefaultMultipliers,                     ! Dry-Bulb Temperature Range Modifier Type
  ,                                       ! Dry-Bulb Temperature Range Modifier Schedule Name
  ASHRAETau,                              ! Solar Model Indicator
  ,                                       ! Beam Solar Day Schedule Name
  ,                                       ! Diffuse Solar Day Schedule Name
  0.383,                                  ! ASHRAE Taub {dimensionless}
  2.26;                                   ! ASHRAE Taud {dimensionless}

OS:ComponentData,
  {38ffc3cb-35e9-4a66-b880-7b41255c31f5}, ! Handle
  Component Data 1,                       ! Name
  {b07cc287-9184-4182-b5e9-623c8e51fb04}, ! UUID
  {f0172af7-23fa-423e-a1ab-09c75c612a03}, ! Version UUID
  1366304808,                             ! Creation Timestamp
  1366304808,                             ! Version Timestamp
  {9993481f-b172-4b80-800f-4fba0763c581}; ! Name of Object 1

