
OS:Version,
  {8f42a1f2-b86a-43d1-abef-21069681688c}, ! Handle
  0.9.3;                                  ! Version Identifier

OS:SizingPeriod:DesignDay,
  {c5e2d9d0-606a-4bac-9f9b-d4f81a319a45}, ! Handle
  Lander Hunt Field Ann Clg 2% Condns DP=>MDB, ! Name
  19.6,                                   ! Maximum Dry-Bulb Temperature {C}
  15.6,                                   ! Daily Dry-Bulb Temperature Range {deltaC}
  10.6,                                   ! Humidity Indicating Conditions at Maximum Dry-Bulb {BasedOnField A3}
  82562,                                  ! Barometric Pressure {Pa}
  4.2,                                    ! Wind Speed {m/s}
  220,                                    ! Wind Direction {deg}
  0,                                      ! Sky Clearness
  0,                                      ! Rain Indicator
  0,                                      ! Snow Indicator
  21,                                     ! Day of Month
  7,                                      ! Month
  SummerDesignDay,                        ! Day Type
  0,                                      ! Daylight Saving Time Indicator
  Dewpoint,                               ! Humidity Indicating Type
  ,                                       ! Humidity Indicating Day Schedule Name
  DefaultMultipliers,                     ! Dry-Bulb Temperature Range Modifier Type
  ,                                       ! Dry-Bulb Temperature Range Modifier Schedule Name
  ASHRAETau,                              ! Solar Model Indicator
  ,                                       ! Beam Solar Day Schedule Name
  ,                                       ! Diffuse Solar Day Schedule Name
  0.405,                                  ! ASHRAE Taub {dimensionless}
  2.036;                                  ! ASHRAE Taud {dimensionless}

