
OS:Version,
  {494e42ad-ec1b-447b-9cd9-f6f64d832207}, ! Handle
  0.9.3;                                  ! Version Identifier

OS:SizingPeriod:DesignDay,
  {995ec129-03c8-44e6-8241-9e3a56a73427}, ! Handle
  Blue Canyon Ap Ann Htg Wind 99.6% Condns WS=>MCDB, ! Name
  2.9,                                    ! Maximum Dry-Bulb Temperature {C}
  0,                                      ! Daily Dry-Bulb Temperature Range {deltaC}
  2.9,                                    ! Humidity Indicating Conditions at Maximum Dry-Bulb {BasedOnField A3}
  83431,                                  ! Barometric Pressure {Pa}
  10.6,                                   ! Wind Speed {m/s}
  60,                                     ! Wind Direction {deg}
  0,                                      ! Sky Clearness
  0,                                      ! Rain Indicator
  0,                                      ! Snow Indicator
  21,                                     ! Day of Month
  2,                                      ! Month
  WinterDesignDay,                        ! Day Type
  0,                                      ! Daylight Saving Time Indicator
  Wetbulb,                                ! Humidity Indicating Type
  ,                                       ! Humidity Indicating Day Schedule Name
  DefaultMultipliers,                     ! Dry-Bulb Temperature Range Modifier Type
  ,                                       ! Dry-Bulb Temperature Range Modifier Schedule Name
  ASHRAEClearSky;                         ! Solar Model Indicator

OS:ComponentData,
  {83b244eb-f933-4cf4-aa04-560afcb88a3a}, ! Handle
  Component Data 1,                       ! Name
  {6ac348a4-8db7-4f87-8346-f1080a199298}, ! UUID
  {7d23bccb-a6d0-4aff-a96c-c427700c4407}, ! Version UUID
  1366306386,                             ! Creation Timestamp
  1366306386,                             ! Version Timestamp
  {995ec129-03c8-44e6-8241-9e3a56a73427}; ! Name of Object 1

