
OS:Version,
  {f76f14a4-65d5-4e02-acda-578cccec3497}, ! Handle
  0.9.3;                                  ! Version Identifier

OS:SizingPeriod:DesignDay,
  {a4144598-6914-4e80-b2c9-2d0644ec5bc8}, ! Handle
  Augusta Bush Field Ann Clg 2% Condns DB=>MWB, ! Name
  33.6,                                   ! Maximum Dry-Bulb Temperature {C}
  11.7,                                   ! Daily Dry-Bulb Temperature Range {deltaC}
  24.2,                                   ! Humidity Indicating Conditions at Maximum Dry-Bulb {BasedOnField A3}
  100845,                                 ! Barometric Pressure {Pa}
  3.8,                                    ! Wind Speed {m/s}
  240,                                    ! Wind Direction {deg}
  0,                                      ! Sky Clearness
  0,                                      ! Rain Indicator
  0,                                      ! Snow Indicator
  21,                                     ! Day of Month
  7,                                      ! Month
  SummerDesignDay,                        ! Day Type
  0,                                      ! Daylight Saving Time Indicator
  Wetbulb,                                ! Humidity Indicating Type
  ,                                       ! Humidity Indicating Day Schedule Name
  DefaultMultipliers,                     ! Dry-Bulb Temperature Range Modifier Type
  ,                                       ! Dry-Bulb Temperature Range Modifier Schedule Name
  ASHRAETau,                              ! Solar Model Indicator
  ,                                       ! Beam Solar Day Schedule Name
  ,                                       ! Diffuse Solar Day Schedule Name
  0.559,                                  ! ASHRAE Taub {dimensionless}
  1.788;                                  ! ASHRAE Taud {dimensionless}

OS:ComponentData,
  {e7faad84-d7d0-4a60-a1ec-257e3016acbe}, ! Handle
  Component Data 1,                       ! Name
  {00f46178-5d38-4a23-b59c-24e268b00428}, ! UUID
  {d776229f-db94-47b0-9db7-9b6cec772af9}, ! Version UUID
  1366306988,                             ! Creation Timestamp
  1366306988,                             ! Version Timestamp
  {a4144598-6914-4e80-b2c9-2d0644ec5bc8}; ! Name of Object 1

