
OS:Version,
  {f28cb347-3650-4172-bc6a-a3b40ce19f52}, ! Handle
  0.9.3;                                  ! Version Identifier

OS:SizingPeriod:DesignDay,
  {283e5b73-7121-44c5-8799-71e8ccaed212}, ! Handle
  Caldwell  Awos Ann Clg 2% Condns DP=>MDB, ! Name
  24.4,                                   ! Maximum Dry-Bulb Temperature {C}
  17.9,                                   ! Daily Dry-Bulb Temperature Range {deltaC}
  12.8,                                   ! Humidity Indicating Conditions at Maximum Dry-Bulb {BasedOnField A3}
  92745,                                  ! Barometric Pressure {Pa}
  2.4,                                    ! Wind Speed {m/s}
  350,                                    ! Wind Direction {deg}
  0,                                      ! Sky Clearness
  0,                                      ! Rain Indicator
  0,                                      ! Snow Indicator
  21,                                     ! Day of Month
  7,                                      ! Month
  SummerDesignDay,                        ! Day Type
  0,                                      ! Daylight Saving Time Indicator
  Dewpoint,                               ! Humidity Indicating Type
  ,                                       ! Humidity Indicating Day Schedule Name
  DefaultMultipliers,                     ! Dry-Bulb Temperature Range Modifier Type
  ,                                       ! Dry-Bulb Temperature Range Modifier Schedule Name
  ASHRAETau,                              ! Solar Model Indicator
  ,                                       ! Beam Solar Day Schedule Name
  ,                                       ! Diffuse Solar Day Schedule Name
  0.411,                                  ! ASHRAE Taub {dimensionless}
  2.073;                                  ! ASHRAE Taud {dimensionless}

OS:ComponentData,
  {874f22f1-ee7c-42c4-90ca-bb7f69b57b85}, ! Handle
  Component Data 1,                       ! Name
  {6fbd2f52-f615-428b-965a-8b424fb5ff8f}, ! UUID
  {37b45112-2793-4d34-8786-4be7a281a0f1}, ! Version UUID
  1366307278,                             ! Creation Timestamp
  1366307278,                             ! Version Timestamp
  {283e5b73-7121-44c5-8799-71e8ccaed212}; ! Name of Object 1

