
OS:Version,
  {3a5820a9-5935-4df4-973b-c69d4ae0d437}, ! Handle
  0.9.3;                                  ! Version Identifier

OS:SizingPeriod:DesignDay,
  {ec0a3432-fb14-4184-a236-3fe0739c6a2c}, ! Handle
  Dillon Ann Clg 1% Condns DB=>MWB,       ! Name
  29.8,                                   ! Maximum Dry-Bulb Temperature {C}
  17.9,                                   ! Daily Dry-Bulb Temperature Range {deltaC}
  15.3,                                   ! Humidity Indicating Conditions at Maximum Dry-Bulb {BasedOnField A3}
  83554,                                  ! Barometric Pressure {Pa}
  4.1,                                    ! Wind Speed {m/s}
  350,                                    ! Wind Direction {deg}
  0,                                      ! Sky Clearness
  0,                                      ! Rain Indicator
  0,                                      ! Snow Indicator
  21,                                     ! Day of Month
  7,                                      ! Month
  SummerDesignDay,                        ! Day Type
  0,                                      ! Daylight Saving Time Indicator
  Wetbulb,                                ! Humidity Indicating Type
  ,                                       ! Humidity Indicating Day Schedule Name
  DefaultMultipliers,                     ! Dry-Bulb Temperature Range Modifier Type
  ,                                       ! Dry-Bulb Temperature Range Modifier Schedule Name
  ASHRAETau,                              ! Solar Model Indicator
  ,                                       ! Beam Solar Day Schedule Name
  ,                                       ! Diffuse Solar Day Schedule Name
  0.377,                                  ! ASHRAE Taub {dimensionless}
  2.177;                                  ! ASHRAE Taud {dimensionless}

OS:ComponentData,
  {0e857db6-eb5d-4eee-827d-3d0a57145256}, ! Handle
  Component Data 1,                       ! Name
  {0ecdf441-121e-4a21-86bc-34b3dc737000}, ! UUID
  {b47ff5a5-b9c0-4183-846a-ace55eafdd35}, ! Version UUID
  1366308750,                             ! Creation Timestamp
  1366308750,                             ! Version Timestamp
  {ec0a3432-fb14-4184-a236-3fe0739c6a2c}; ! Name of Object 1

