
OS:Version,
  {d41b5ba5-1acb-4eb3-84c5-d39a46b1dd22}, ! Handle
  0.9.3;                                  ! Version Identifier

OS:SizingPeriod:DesignDay,
  {489d7f3b-ff0f-4b3c-b67c-07262db66936}, ! Handle
  Dodge City Regional Ap Ann Clg .4% Condns Enth=>MDB, ! Name
  31.8,                                   ! Maximum Dry-Bulb Temperature {C}
  13.9,                                   ! Daily Dry-Bulb Temperature Range {deltaC}
  74400,                                  ! Humidity Indicating Conditions at Maximum Dry-Bulb {BasedOnField A3}
  92243,                                  ! Barometric Pressure {Pa}
  7.4,                                    ! Wind Speed {m/s}
  180,                                    ! Wind Direction {deg}
  0,                                      ! Sky Clearness
  0,                                      ! Rain Indicator
  0,                                      ! Snow Indicator
  21,                                     ! Day of Month
  7,                                      ! Month
  SummerDesignDay,                        ! Day Type
  0,                                      ! Daylight Saving Time Indicator
  Enthalpy,                               ! Humidity Indicating Type
  ,                                       ! Humidity Indicating Day Schedule Name
  DefaultMultipliers,                     ! Dry-Bulb Temperature Range Modifier Type
  ,                                       ! Dry-Bulb Temperature Range Modifier Schedule Name
  ASHRAETau,                              ! Solar Model Indicator
  ,                                       ! Beam Solar Day Schedule Name
  ,                                       ! Diffuse Solar Day Schedule Name
  0.419,                                  ! ASHRAE Taub {dimensionless}
  2.142;                                  ! ASHRAE Taud {dimensionless}

OS:ComponentData,
  {1fead8ee-3c83-4f7e-bc91-dc34e96c2087}, ! Handle
  Component Data 1,                       ! Name
  {0b893bcb-ab1c-4df0-bd5e-5e1162678f46}, ! UUID
  {7507a358-5765-4115-8a90-db9fdf9b831c}, ! Version UUID
  1366307518,                             ! Creation Timestamp
  1366307518,                             ! Version Timestamp
  {489d7f3b-ff0f-4b3c-b67c-07262db66936}; ! Name of Object 1

