
OS:Version,
  {bab0e337-efb1-4d46-8c11-d93d519fbb5e}, ! Handle
  0.9.3;                                  ! Version Identifier

OS:SizingPeriod:DesignDay,
  {a94ea33f-5e94-41c3-abd4-d6a275c54735}, ! Handle
  Hallock Ann Htg 99% Condns DB,          ! Name
  -28.8,                                  ! Maximum Dry-Bulb Temperature {C}
  0,                                      ! Daily Dry-Bulb Temperature Range {deltaC}
  -28.8,                                  ! Humidity Indicating Conditions at Maximum Dry-Bulb {BasedOnField A3}
  98358,                                  ! Barometric Pressure {Pa}
  2.6,                                    ! Wind Speed {m/s}
  150,                                    ! Wind Direction {deg}
  0,                                      ! Sky Clearness
  0,                                      ! Rain Indicator
  0,                                      ! Snow Indicator
  21,                                     ! Day of Month
  1,                                      ! Month
  WinterDesignDay,                        ! Day Type
  0,                                      ! Daylight Saving Time Indicator
  Wetbulb,                                ! Humidity Indicating Type
  ,                                       ! Humidity Indicating Day Schedule Name
  DefaultMultipliers,                     ! Dry-Bulb Temperature Range Modifier Type
  ,                                       ! Dry-Bulb Temperature Range Modifier Schedule Name
  ASHRAEClearSky;                         ! Solar Model Indicator

OS:ComponentData,
  {084dacad-048e-4b52-b407-a0c77ddbd033}, ! Handle
  Component Data 1,                       ! Name
  {1d3be27b-6be6-4f26-89a5-ffd891e18de3}, ! UUID
  {51598d11-02dc-4800-b3c4-6b891f8c2407}, ! Version UUID
  1366308250,                             ! Creation Timestamp
  1366308250,                             ! Version Timestamp
  {a94ea33f-5e94-41c3-abd4-d6a275c54735}; ! Name of Object 1

