
OS:Version,
  {1d00c329-e60f-4aa0-af17-354f308dce37}, ! Handle
  0.9.3;                                  ! Version Identifier

OS:SizingPeriod:DesignDay,
  {799cae10-8932-4004-b17e-2783e12ef1b1}, ! Handle
  Kaneohe Bay Mcas Ann Clg .4% Condns Enth=>MDB, ! Name
  27.9,                                   ! Maximum Dry-Bulb Temperature {C}
  4,                                      ! Daily Dry-Bulb Temperature Range {deltaC}
  76800,                                  ! Humidity Indicating Conditions at Maximum Dry-Bulb {BasedOnField A3}
  101289,                                 ! Barometric Pressure {Pa}
  4.4,                                    ! Wind Speed {m/s}
  70,                                     ! Wind Direction {deg}
  0,                                      ! Sky Clearness
  0,                                      ! Rain Indicator
  0,                                      ! Snow Indicator
  21,                                     ! Day of Month
  9,                                      ! Month
  SummerDesignDay,                        ! Day Type
  0,                                      ! Daylight Saving Time Indicator
  Enthalpy,                               ! Humidity Indicating Type
  ,                                       ! Humidity Indicating Day Schedule Name
  DefaultMultipliers,                     ! Dry-Bulb Temperature Range Modifier Type
  ,                                       ! Dry-Bulb Temperature Range Modifier Schedule Name
  ASHRAETau,                              ! Solar Model Indicator
  ,                                       ! Beam Solar Day Schedule Name
  ,                                       ! Diffuse Solar Day Schedule Name
  0.371,                                  ! ASHRAE Taub {dimensionless}
  2.619;                                  ! ASHRAE Taud {dimensionless}

OS:ComponentData,
  {9883fcbd-d096-4521-8d49-8f32e8061f51}, ! Handle
  Component Data 1,                       ! Name
  {5e1aa004-c01e-4e5e-9dec-4daef9134306}, ! UUID
  {2cd5512b-caa9-4866-8595-98364f74e779}, ! Version UUID
  1366307105,                             ! Creation Timestamp
  1366307105,                             ! Version Timestamp
  {799cae10-8932-4004-b17e-2783e12ef1b1}; ! Name of Object 1

