
OS:Version,
  {ae2322a6-5fbf-49ca-9afd-6bf5b03afe13}, ! Handle
  0.9.3;                                  ! Version Identifier

OS:SizingPeriod:DesignDay,
  {a2614966-d915-442f-ae82-4c3d70c08441}, ! Handle
  Columbus Metropolitan Arpt Ann Clg 1% Condns WB=>MDB, ! Name
  31.2,                                   ! Maximum Dry-Bulb Temperature {C}
  10.1,                                   ! Daily Dry-Bulb Temperature Range {deltaC}
  25.3,                                   ! Humidity Indicating Conditions at Maximum Dry-Bulb {BasedOnField A3}
  99892,                                  ! Barometric Pressure {Pa}
  3.7,                                    ! Wind Speed {m/s}
  270,                                    ! Wind Direction {deg}
  0,                                      ! Sky Clearness
  0,                                      ! Rain Indicator
  0,                                      ! Snow Indicator
  21,                                     ! Day of Month
  7,                                      ! Month
  SummerDesignDay,                        ! Day Type
  0,                                      ! Daylight Saving Time Indicator
  Wetbulb,                                ! Humidity Indicating Type
  ,                                       ! Humidity Indicating Day Schedule Name
  DefaultMultipliers,                     ! Dry-Bulb Temperature Range Modifier Type
  ,                                       ! Dry-Bulb Temperature Range Modifier Schedule Name
  ASHRAETau,                              ! Solar Model Indicator
  ,                                       ! Beam Solar Day Schedule Name
  ,                                       ! Diffuse Solar Day Schedule Name
  0.564,                                  ! ASHRAE Taub {dimensionless}
  1.778;                                  ! ASHRAE Taud {dimensionless}

OS:ComponentData,
  {08281e39-4ac6-4312-b919-aaab962b1a76}, ! Handle
  Component Data 1,                       ! Name
  {00cd0aed-1d3c-4c83-a771-024d17185fd3}, ! UUID
  {7f4a8a5a-90b1-408d-90ba-264fd5d58182}, ! Version UUID
  1366307004,                             ! Creation Timestamp
  1366307004,                             ! Version Timestamp
  {a2614966-d915-442f-ae82-4c3d70c08441}; ! Name of Object 1

