
OS:Version,
  {7f8045e8-01cf-4188-8b4e-a1b638dbab4f}, ! Handle
  0.9.3;                                  ! Version Identifier

OS:SizingPeriod:DesignDay,
  {a4005bae-f417-42a6-9260-67d7dcf5b525}, ! Handle
  Anniston Metropolitan Ap Ann Clg 1% Condns DB=>MWB, ! Name
  33.5,                                   ! Maximum Dry-Bulb Temperature {C}
  10.8,                                   ! Daily Dry-Bulb Temperature Range {deltaC}
  24.1,                                   ! Humidity Indicating Conditions at Maximum Dry-Bulb {BasedOnField A3}
  99110,                                  ! Barometric Pressure {Pa}
  3.2,                                    ! Wind Speed {m/s}
  270,                                    ! Wind Direction {deg}
  0,                                      ! Sky Clearness
  0,                                      ! Rain Indicator
  0,                                      ! Snow Indicator
  21,                                     ! Day of Month
  7,                                      ! Month
  SummerDesignDay,                        ! Day Type
  0,                                      ! Daylight Saving Time Indicator
  Wetbulb,                                ! Humidity Indicating Type
  ,                                       ! Humidity Indicating Day Schedule Name
  DefaultMultipliers,                     ! Dry-Bulb Temperature Range Modifier Type
  ,                                       ! Dry-Bulb Temperature Range Modifier Schedule Name
  ASHRAETau,                              ! Solar Model Indicator
  ,                                       ! Beam Solar Day Schedule Name
  ,                                       ! Diffuse Solar Day Schedule Name
  0.582,                                  ! ASHRAE Taub {dimensionless}
  1.728;                                  ! ASHRAE Taud {dimensionless}

