
OS:Version,
  {bf7fd894-9af2-421e-9b02-278151036fdb}, ! Handle
  0.9.3;                                  ! Version Identifier

OS:SizingPeriod:DesignDay,
  {ed3012dd-6695-47b9-8c30-43a8325bb1d2}, ! Handle
  Hattiesburg Laurel Ann Clg .4% Condns DB=>MWB, ! Name
  35.4,                                   ! Maximum Dry-Bulb Temperature {C}
  10.9,                                   ! Daily Dry-Bulb Temperature Range {deltaC}
  24.3,                                   ! Humidity Indicating Conditions at Maximum Dry-Bulb {BasedOnField A3}
  100213,                                 ! Barometric Pressure {Pa}
  2.1,                                    ! Wind Speed {m/s}
  330,                                    ! Wind Direction {deg}
  0,                                      ! Sky Clearness
  0,                                      ! Rain Indicator
  0,                                      ! Snow Indicator
  21,                                     ! Day of Month
  7,                                      ! Month
  SummerDesignDay,                        ! Day Type
  0,                                      ! Daylight Saving Time Indicator
  Wetbulb,                                ! Humidity Indicating Type
  ,                                       ! Humidity Indicating Day Schedule Name
  DefaultMultipliers,                     ! Dry-Bulb Temperature Range Modifier Type
  ,                                       ! Dry-Bulb Temperature Range Modifier Schedule Name
  ASHRAETau,                              ! Solar Model Indicator
  ,                                       ! Beam Solar Day Schedule Name
  ,                                       ! Diffuse Solar Day Schedule Name
  0.55,                                   ! ASHRAE Taub {dimensionless}
  1.826;                                  ! ASHRAE Taud {dimensionless}

OS:ComponentData,
  {c6a05a1c-e2fe-45a2-99d8-d7d4963b5791}, ! Handle
  Component Data 1,                       ! Name
  {bffd9291-98b0-4f0e-818e-baa954f865ea}, ! UUID
  {c77a54db-9d16-4a60-bd5b-cd70a1f071f2}, ! Version UUID
  1366308633,                             ! Creation Timestamp
  1366308633,                             ! Version Timestamp
  {ed3012dd-6695-47b9-8c30-43a8325bb1d2}; ! Name of Object 1

