
OS:Version,
  {ebf0497a-eec1-4dde-ba01-3c5e8ce7efdd}, ! Handle
  0.9.3;                                  ! Version Identifier

OS:SizingPeriod:DesignDay,
  {fb1a5456-bc40-455e-bbd3-ae44028be7d8}, ! Handle
  Columbus Muni Ann Clg 1% Condns Enth=>MDB, ! Name
  30.2,                                   ! Maximum Dry-Bulb Temperature {C}
  11.3,                                   ! Daily Dry-Bulb Temperature Range {deltaC}
  77100,                                  ! Humidity Indicating Conditions at Maximum Dry-Bulb {BasedOnField A3}
  96023,                                  ! Barometric Pressure {Pa}
  5.4,                                    ! Wind Speed {m/s}
  180,                                    ! Wind Direction {deg}
  0,                                      ! Sky Clearness
  0,                                      ! Rain Indicator
  0,                                      ! Snow Indicator
  21,                                     ! Day of Month
  7,                                      ! Month
  SummerDesignDay,                        ! Day Type
  0,                                      ! Daylight Saving Time Indicator
  Enthalpy,                               ! Humidity Indicating Type
  ,                                       ! Humidity Indicating Day Schedule Name
  DefaultMultipliers,                     ! Dry-Bulb Temperature Range Modifier Type
  ,                                       ! Dry-Bulb Temperature Range Modifier Schedule Name
  ASHRAETau,                              ! Solar Model Indicator
  ,                                       ! Beam Solar Day Schedule Name
  ,                                       ! Diffuse Solar Day Schedule Name
  0.407,                                  ! ASHRAE Taub {dimensionless}
  2.237;                                  ! ASHRAE Taud {dimensionless}

OS:ComponentData,
  {5c6016d0-9968-4acc-8562-a48082bd8863}, ! Handle
  Component Data 1,                       ! Name
  {bc5609c6-5961-41c0-9917-5a6fee6c1c64}, ! UUID
  {36830282-af89-4773-aadb-7af37f4ae6ee}, ! Version UUID
  1366309099,                             ! Creation Timestamp
  1366309099,                             ! Version Timestamp
  {fb1a5456-bc40-455e-bbd3-ae44028be7d8}; ! Name of Object 1

