
OS:Version,
  {1f7cee6f-da53-4308-a1be-9b0b13c51cf5}, ! Handle
  0.9.3;                                  ! Version Identifier

OS:SizingPeriod:DesignDay,
  {f458c61d-f215-47e9-839d-ec96fbb428dc}, ! Handle
  Apalachicola Ann Clg 2% Condns WB=>MDB, ! Name
  30.3,                                   ! Maximum Dry-Bulb Temperature {C}
  7.6,                                    ! Daily Dry-Bulb Temperature Range {deltaC}
  26.3,                                   ! Humidity Indicating Conditions at Maximum Dry-Bulb {BasedOnField A3}
  101253,                                 ! Barometric Pressure {Pa}
  4.2,                                    ! Wind Speed {m/s}
  230,                                    ! Wind Direction {deg}
  0,                                      ! Sky Clearness
  0,                                      ! Rain Indicator
  0,                                      ! Snow Indicator
  21,                                     ! Day of Month
  8,                                      ! Month
  SummerDesignDay,                        ! Day Type
  0,                                      ! Daylight Saving Time Indicator
  Wetbulb,                                ! Humidity Indicating Type
  ,                                       ! Humidity Indicating Day Schedule Name
  DefaultMultipliers,                     ! Dry-Bulb Temperature Range Modifier Type
  ,                                       ! Dry-Bulb Temperature Range Modifier Schedule Name
  ASHRAETau,                              ! Solar Model Indicator
  ,                                       ! Beam Solar Day Schedule Name
  ,                                       ! Diffuse Solar Day Schedule Name
  0.51,                                   ! ASHRAE Taub {dimensionless}
  1.98;                                   ! ASHRAE Taud {dimensionless}

OS:ComponentData,
  {e14ef1d4-46ab-4ba3-928e-69f3d86314b0}, ! Handle
  Component Data 1,                       ! Name
  {e6420785-8302-47ff-9137-dafbc2ee6621}, ! UUID
  {8e3472c1-a52a-46c2-b889-b36719d7d0cb}, ! Version UUID
  1366306782,                             ! Creation Timestamp
  1366306782,                             ! Version Timestamp
  {f458c61d-f215-47e9-839d-ec96fbb428dc}; ! Name of Object 1

