
OS:Version,
  {4caa2a4d-f330-46fe-878b-484b6f7ef237}, ! Handle
  0.9.3;                                  ! Version Identifier

OS:SizingPeriod:DesignDay,
  {7dd36798-a54c-4de8-8a44-f72c3abf3cac}, ! Handle
  Burley Municipal Arpt Ann Hum_n 99.6% Condns DP=>MCDB, ! Name
  -17,                                    ! Maximum Dry-Bulb Temperature {C}
  0,                                      ! Daily Dry-Bulb Temperature Range {deltaC}
  -21.7,                                  ! Humidity Indicating Conditions at Maximum Dry-Bulb {BasedOnField A3}
  87002,                                  ! Barometric Pressure {Pa}
  2.6,                                    ! Wind Speed {m/s}
  60,                                     ! Wind Direction {deg}
  0,                                      ! Sky Clearness
  0,                                      ! Rain Indicator
  0,                                      ! Snow Indicator
  21,                                     ! Day of Month
  12,                                     ! Month
  WinterDesignDay,                        ! Day Type
  0,                                      ! Daylight Saving Time Indicator
  Dewpoint,                               ! Humidity Indicating Type
  ,                                       ! Humidity Indicating Day Schedule Name
  DefaultMultipliers,                     ! Dry-Bulb Temperature Range Modifier Type
  ,                                       ! Dry-Bulb Temperature Range Modifier Schedule Name
  ASHRAEClearSky;                         ! Solar Model Indicator

OS:ComponentData,
  {15e78e3e-53c4-4752-a56a-5430f43cfb99}, ! Handle
  Component Data 1,                       ! Name
  {d98f4113-aac0-4d02-ab5e-09862b63b503}, ! UUID
  {20f05440-d23c-4737-998d-0bd7eb0d5b95}, ! Version UUID
  1366307273,                             ! Creation Timestamp
  1366307273,                             ! Version Timestamp
  {7dd36798-a54c-4de8-8a44-f72c3abf3cac}; ! Name of Object 1

