
OS:Version,
  {021047d9-67e8-451c-8eee-101b709cea76}, ! Handle
  0.9.3;                                  ! Version Identifier

OS:SizingPeriod:DesignDay,
  {f2820fd1-73da-4855-8638-8783239dac1a}, ! Handle
  COLUMBIA Ann Clg 2% Condns DB=>MWB,     ! Name
  31.7,                                   ! Maximum Dry-Bulb Temperature {C}
  11,                                     ! Daily Dry-Bulb Temperature Range {deltaC}
  23.8,                                   ! Humidity Indicating Conditions at Maximum Dry-Bulb {BasedOnField A3}
  98123,                                  ! Barometric Pressure {Pa}
  4.4,                                    ! Wind Speed {m/s}
  220,                                    ! Wind Direction {deg}
  0,                                      ! Sky Clearness
  0,                                      ! Rain Indicator
  0,                                      ! Snow Indicator
  21,                                     ! Day of Month
  7,                                      ! Month
  SummerDesignDay,                        ! Day Type
  0,                                      ! Daylight Saving Time Indicator
  Wetbulb,                                ! Humidity Indicating Type
  ,                                       ! Humidity Indicating Day Schedule Name
  DefaultMultipliers,                     ! Dry-Bulb Temperature Range Modifier Type
  ,                                       ! Dry-Bulb Temperature Range Modifier Schedule Name
  ASHRAETau,                              ! Solar Model Indicator
  ,                                       ! Beam Solar Day Schedule Name
  ,                                       ! Diffuse Solar Day Schedule Name
  0.448,                                  ! ASHRAE Taub {dimensionless}
  2.098;                                  ! ASHRAE Taud {dimensionless}

OS:ComponentData,
  {f1f8c587-33e1-4250-8304-fca20988e4d9}, ! Handle
  Component Data 1,                       ! Name
  {2cb5f232-f4c1-4452-85b2-65a02dba9916}, ! UUID
  {a8f99694-0635-4db2-ad92-dbc47cda932b}, ! Version UUID
  1366308481,                             ! Creation Timestamp
  1366308481,                             ! Version Timestamp
  {f2820fd1-73da-4855-8638-8783239dac1a}; ! Name of Object 1

