
OS:Version,
  {87e4952f-32a4-46f0-970b-3d22b59d5420}, ! Handle
  0.9.3;                                  ! Version Identifier

OS:SizingPeriod:DesignDay,
  {a2029717-6d32-42b6-bac6-0626032ae40f}, ! Handle
  Joplin Municipal Ap Ann Clg .4% Condns DP=>MDB, ! Name
  29.6,                                   ! Maximum Dry-Bulb Temperature {C}
  10.8,                                   ! Daily Dry-Bulb Temperature Range {deltaC}
  24.1,                                   ! Humidity Indicating Conditions at Maximum Dry-Bulb {BasedOnField A3}
  97808,                                  ! Barometric Pressure {Pa}
  4.8,                                    ! Wind Speed {m/s}
  210,                                    ! Wind Direction {deg}
  0,                                      ! Sky Clearness
  0,                                      ! Rain Indicator
  0,                                      ! Snow Indicator
  21,                                     ! Day of Month
  7,                                      ! Month
  SummerDesignDay,                        ! Day Type
  0,                                      ! Daylight Saving Time Indicator
  Dewpoint,                               ! Humidity Indicating Type
  ,                                       ! Humidity Indicating Day Schedule Name
  DefaultMultipliers,                     ! Dry-Bulb Temperature Range Modifier Type
  ,                                       ! Dry-Bulb Temperature Range Modifier Schedule Name
  ASHRAETau,                              ! Solar Model Indicator
  ,                                       ! Beam Solar Day Schedule Name
  ,                                       ! Diffuse Solar Day Schedule Name
  0.446,                                  ! ASHRAE Taub {dimensionless}
  2.122;                                  ! ASHRAE Taud {dimensionless}

OS:ComponentData,
  {3a8a5ec4-6b83-48e4-9a3d-c295d39eed57}, ! Handle
  Component Data 1,                       ! Name
  {c0688a89-379b-40d0-ae61-7848c269dda0}, ! UUID
  {d5e6cbce-aaca-41bc-b024-cf8a51439f74}, ! Version UUID
  1366308509,                             ! Creation Timestamp
  1366308509,                             ! Version Timestamp
  {a2029717-6d32-42b6-bac6-0626032ae40f}; ! Name of Object 1

