
OS:Version,
  {7d23696e-1f83-44c1-8a66-52a75129b686}, ! Handle
  0.9.3;                                  ! Version Identifier

OS:SizingPeriod:DesignDay,
  {adf55e91-60fc-422a-a805-e3721504aa7b}, ! Handle
  CASPER Ann Clg .4% Condns WB=>MDB,      ! Name
  28.5,                                   ! Maximum Dry-Bulb Temperature {C}
  18.1,                                   ! Daily Dry-Bulb Temperature Range {deltaC}
  17.5,                                   ! Humidity Indicating Conditions at Maximum Dry-Bulb {BasedOnField A3}
  83400,                                  ! Barometric Pressure {Pa}
  5.5,                                    ! Wind Speed {m/s}
  230,                                    ! Wind Direction {deg}
  0,                                      ! Sky Clearness
  0,                                      ! Rain Indicator
  0,                                      ! Snow Indicator
  21,                                     ! Day of Month
  7,                                      ! Month
  SummerDesignDay,                        ! Day Type
  0,                                      ! Daylight Saving Time Indicator
  Wetbulb,                                ! Humidity Indicating Type
  ,                                       ! Humidity Indicating Day Schedule Name
  DefaultMultipliers,                     ! Dry-Bulb Temperature Range Modifier Type
  ,                                       ! Dry-Bulb Temperature Range Modifier Schedule Name
  ASHRAETau,                              ! Solar Model Indicator
  ,                                       ! Beam Solar Day Schedule Name
  ,                                       ! Diffuse Solar Day Schedule Name
  0.411,                                  ! ASHRAE Taub {dimensionless}
  2.017;                                  ! ASHRAE Taud {dimensionless}

OS:ComponentData,
  {d231d163-69c1-45e8-8e2e-fca033c114eb}, ! Handle
  Component Data 1,                       ! Name
  {5c9ace9d-d63c-471b-92d7-6be33a1eaf52}, ! UUID
  {a522e2ee-43ba-4d01-bde9-a198e8fa06ff}, ! Version UUID
  1366311695,                             ! Creation Timestamp
  1366311695,                             ! Version Timestamp
  {adf55e91-60fc-422a-a805-e3721504aa7b}; ! Name of Object 1

