
OS:Version,
  {f82e673c-809b-44fa-b704-85da4588ce14}, ! Handle
  0.9.3;                                  ! Version Identifier

OS:SizingPeriod:DesignDay,
  {49da9164-3069-4d5e-94b4-888353add568}, ! Handle
  Fort Dodge  Awos Ann Htg Wind 99% Condns WS=>MCDB, ! Name
  -11.3,                                  ! Maximum Dry-Bulb Temperature {C}
  0,                                      ! Daily Dry-Bulb Temperature Range {deltaC}
  -11.3,                                  ! Humidity Indicating Conditions at Maximum Dry-Bulb {BasedOnField A3}
  97132,                                  ! Barometric Pressure {Pa}
  11.8,                                   ! Wind Speed {m/s}
  310,                                    ! Wind Direction {deg}
  0,                                      ! Sky Clearness
  0,                                      ! Rain Indicator
  0,                                      ! Snow Indicator
  21,                                     ! Day of Month
  1,                                      ! Month
  WinterDesignDay,                        ! Day Type
  0,                                      ! Daylight Saving Time Indicator
  Wetbulb,                                ! Humidity Indicating Type
  ,                                       ! Humidity Indicating Day Schedule Name
  DefaultMultipliers,                     ! Dry-Bulb Temperature Range Modifier Type
  ,                                       ! Dry-Bulb Temperature Range Modifier Schedule Name
  ASHRAEClearSky;                         ! Solar Model Indicator

OS:ComponentData,
  {73c0bd2d-3600-4b83-9545-84d40386481e}, ! Handle
  Component Data 1,                       ! Name
  {3817d48d-36a0-4ad0-aa8f-8c1843d78896}, ! UUID
  {87c0839a-19fa-4be2-940c-5f4ed5732319}, ! Version UUID
  1366307197,                             ! Creation Timestamp
  1366307197,                             ! Version Timestamp
  {49da9164-3069-4d5e-94b4-888353add568}; ! Name of Object 1

