
OS:Version,
  {dd49af2a-bbd3-479e-a083-372e0950d190}, ! Handle
  0.9.3;                                  ! Version Identifier

OS:SizingPeriod:DesignDay,
  {aa946106-e3f1-4054-b980-1754337f9818}, ! Handle
  Jackson Julian Carroll Ap Ann Clg .4% Condns DP=>MDB, ! Name
  27.8,                                   ! Maximum Dry-Bulb Temperature {C}
  9.5,                                    ! Daily Dry-Bulb Temperature Range {deltaC}
  23.3,                                   ! Humidity Indicating Conditions at Maximum Dry-Bulb {BasedOnField A3}
  96426,                                  ! Barometric Pressure {Pa}
  2.2,                                    ! Wind Speed {m/s}
  230,                                    ! Wind Direction {deg}
  0,                                      ! Sky Clearness
  0,                                      ! Rain Indicator
  0,                                      ! Snow Indicator
  21,                                     ! Day of Month
  7,                                      ! Month
  SummerDesignDay,                        ! Day Type
  0,                                      ! Daylight Saving Time Indicator
  Dewpoint,                               ! Humidity Indicating Type
  ,                                       ! Humidity Indicating Day Schedule Name
  DefaultMultipliers,                     ! Dry-Bulb Temperature Range Modifier Type
  ,                                       ! Dry-Bulb Temperature Range Modifier Schedule Name
  ASHRAETau,                              ! Solar Model Indicator
  ,                                       ! Beam Solar Day Schedule Name
  ,                                       ! Diffuse Solar Day Schedule Name
  0.493,                                  ! ASHRAE Taub {dimensionless}
  1.907;                                  ! ASHRAE Taud {dimensionless}

OS:ComponentData,
  {ced96b32-382d-491a-bd14-baa548a1fa7f}, ! Handle
  Component Data 1,                       ! Name
  {86870b97-1447-420c-a268-0b5d88080097}, ! UUID
  {499416c4-5618-4428-a4b4-e98a7333f71e}, ! Version UUID
  1366307644,                             ! Creation Timestamp
  1366307644,                             ! Version Timestamp
  {aa946106-e3f1-4054-b980-1754337f9818}; ! Name of Object 1

