
OS:Version,
  {99c1151a-dab5-4df2-a39f-79e81b15ca8d}, ! Handle
  0.9.3;                                  ! Version Identifier

OS:SizingPeriod:DesignDay,
  {5670169c-7157-4688-b23d-86b852d2daed}, ! Handle
  Deadhorse Ann Htg 99.6% Condns DB,      ! Name
  -43.5,                                  ! Maximum Dry-Bulb Temperature {C}
  0,                                      ! Daily Dry-Bulb Temperature Range {deltaC}
  -43.5,                                  ! Humidity Indicating Conditions at Maximum Dry-Bulb {BasedOnField A3}
  101049,                                 ! Barometric Pressure {Pa}
  4,                                      ! Wind Speed {m/s}
  240,                                    ! Wind Direction {deg}
  0,                                      ! Sky Clearness
  0,                                      ! Rain Indicator
  0,                                      ! Snow Indicator
  21,                                     ! Day of Month
  2,                                      ! Month
  WinterDesignDay,                        ! Day Type
  0,                                      ! Daylight Saving Time Indicator
  Wetbulb,                                ! Humidity Indicating Type
  ,                                       ! Humidity Indicating Day Schedule Name
  DefaultMultipliers,                     ! Dry-Bulb Temperature Range Modifier Type
  ,                                       ! Dry-Bulb Temperature Range Modifier Schedule Name
  ASHRAEClearSky;                         ! Solar Model Indicator

OS:ComponentData,
  {054f6cec-1608-466f-8c9e-e1eba5366daf}, ! Handle
  Component Data 1,                       ! Name
  {0cfc40f6-2ea9-4a5d-b815-2057ecf08377}, ! UUID
  {9abfea4f-5fb0-42da-98ec-b9269d543b17}, ! Version UUID
  1366304818,                             ! Creation Timestamp
  1366304818,                             ! Version Timestamp
  {5670169c-7157-4688-b23d-86b852d2daed}; ! Name of Object 1

