
OS:Version,
  {2f1b5328-516d-486c-91e1-e388773c7049}, ! Handle
  0.9.3;                                  ! Version Identifier

OS:SizingPeriod:DesignDay,
  {b0320eee-fea3-438a-a05a-1a27219a8ec0}, ! Handle
  Imperial Ann Htg 99.6% Condns DB,       ! Name
  2,                                      ! Maximum Dry-Bulb Temperature {C}
  0,                                      ! Daily Dry-Bulb Temperature Range {deltaC}
  2,                                      ! Humidity Indicating Conditions at Maximum Dry-Bulb {BasedOnField A3}
  101529,                                 ! Barometric Pressure {Pa}
  2.1,                                    ! Wind Speed {m/s}
  270,                                    ! Wind Direction {deg}
  0,                                      ! Sky Clearness
  0,                                      ! Rain Indicator
  0,                                      ! Snow Indicator
  21,                                     ! Day of Month
  12,                                     ! Month
  WinterDesignDay,                        ! Day Type
  0,                                      ! Daylight Saving Time Indicator
  Wetbulb,                                ! Humidity Indicating Type
  ,                                       ! Humidity Indicating Day Schedule Name
  DefaultMultipliers,                     ! Dry-Bulb Temperature Range Modifier Type
  ,                                       ! Dry-Bulb Temperature Range Modifier Schedule Name
  ASHRAEClearSky;                         ! Solar Model Indicator

OS:ComponentData,
  {32c33c9a-fd3f-452d-a927-3e8509cc9b07}, ! Handle
  Component Data 1,                       ! Name
  {4a5c9251-90ca-461d-afeb-e2fae12bd703}, ! UUID
  {7102f6c0-d2fb-4f6e-9421-4cafc9cfba26}, ! Version UUID
  1366306452,                             ! Creation Timestamp
  1366306452,                             ! Version Timestamp
  {b0320eee-fea3-438a-a05a-1a27219a8ec0}; ! Name of Object 1

