
OS:Version,
  {c0f5fa56-f6ac-4051-86a1-1ec253a739b0}, ! Handle
  0.9.3;                                  ! Version Identifier

OS:SizingPeriod:DesignDay,
  {26998b56-537c-4703-98c3-abdd6656eb44}, ! Handle
  Cape Girardeau Municipal Ap Ann Clg 2% Condns DP=>MDB, ! Name
  28.5,                                   ! Maximum Dry-Bulb Temperature {C}
  10.7,                                   ! Daily Dry-Bulb Temperature Range {deltaC}
  23.8,                                   ! Humidity Indicating Conditions at Maximum Dry-Bulb {BasedOnField A3}
  100094,                                 ! Barometric Pressure {Pa}
  3.9,                                    ! Wind Speed {m/s}
  210,                                    ! Wind Direction {deg}
  0,                                      ! Sky Clearness
  0,                                      ! Rain Indicator
  0,                                      ! Snow Indicator
  21,                                     ! Day of Month
  7,                                      ! Month
  SummerDesignDay,                        ! Day Type
  0,                                      ! Daylight Saving Time Indicator
  Dewpoint,                               ! Humidity Indicating Type
  ,                                       ! Humidity Indicating Day Schedule Name
  DefaultMultipliers,                     ! Dry-Bulb Temperature Range Modifier Type
  ,                                       ! Dry-Bulb Temperature Range Modifier Schedule Name
  ASHRAETau,                              ! Solar Model Indicator
  ,                                       ! Beam Solar Day Schedule Name
  ,                                       ! Diffuse Solar Day Schedule Name
  0.491,                                  ! ASHRAE Taub {dimensionless}
  1.953;                                  ! ASHRAE Taud {dimensionless}

OS:ComponentData,
  {8c2f6972-cdf9-4766-9a81-a2fdc90e9c52}, ! Handle
  Component Data 1,                       ! Name
  {63f20414-71bb-4d25-9b84-388d8c75ee1c}, ! UUID
  {83f7c48e-7959-4061-9325-a52537ee6352}, ! Version UUID
  1366308476,                             ! Creation Timestamp
  1366308476,                             ! Version Timestamp
  {26998b56-537c-4703-98c3-abdd6656eb44}; ! Name of Object 1

