
OS:Version,
  {0bd428d7-4754-4979-9b37-8669edc2d433}, ! Handle
  0.9.3;                                  ! Version Identifier

OS:SizingPeriod:DesignDay,
  {d5ff9063-cf56-4888-ab35-15ce2008d456}, ! Handle
  Carroll Ann Clg 1% Condns DB=>MWB,      ! Name
  32.6,                                   ! Maximum Dry-Bulb Temperature {C}
  11.4,                                   ! Daily Dry-Bulb Temperature Range {deltaC}
  24.8,                                   ! Humidity Indicating Conditions at Maximum Dry-Bulb {BasedOnField A3}
  96900,                                  ! Barometric Pressure {Pa}
  5.7,                                    ! Wind Speed {m/s}
  190,                                    ! Wind Direction {deg}
  0,                                      ! Sky Clearness
  0,                                      ! Rain Indicator
  0,                                      ! Snow Indicator
  21,                                     ! Day of Month
  7,                                      ! Month
  SummerDesignDay,                        ! Day Type
  0,                                      ! Daylight Saving Time Indicator
  Wetbulb,                                ! Humidity Indicating Type
  ,                                       ! Humidity Indicating Day Schedule Name
  DefaultMultipliers,                     ! Dry-Bulb Temperature Range Modifier Type
  ,                                       ! Dry-Bulb Temperature Range Modifier Schedule Name
  ASHRAETau,                              ! Solar Model Indicator
  ,                                       ! Beam Solar Day Schedule Name
  ,                                       ! Diffuse Solar Day Schedule Name
  0.409,                                  ! ASHRAE Taub {dimensionless}
  2.221;                                  ! ASHRAE Taud {dimensionless}

OS:ComponentData,
  {1c0f1f78-0343-42f2-acb2-99c42fc80a2b}, ! Handle
  Component Data 1,                       ! Name
  {d0a44466-7149-43f0-9772-e2ccd5a590c5}, ! UUID
  {c61c4532-fbe2-4320-878d-e45a504c7a94}, ! Version UUID
  1366307146,                             ! Creation Timestamp
  1366307146,                             ! Version Timestamp
  {d5ff9063-cf56-4888-ab35-15ce2008d456}; ! Name of Object 1

