
OS:Version,
  {9ce6d9d8-b039-4f92-b749-8581db45e9b4}, ! Handle
  0.9.3;                                  ! Version Identifier

OS:SizingPeriod:DesignDay,
  {eda8c28f-638e-4267-b548-9b0de2f9be7a}, ! Handle
  Buffalo Niagara Intl Ap Ann Htg 99% Condns DB, ! Name
  -14.1,                                  ! Maximum Dry-Bulb Temperature {C}
  0,                                      ! Daily Dry-Bulb Temperature Range {deltaC}
  -14.1,                                  ! Humidity Indicating Conditions at Maximum Dry-Bulb {BasedOnField A3}
  98769,                                  ! Barometric Pressure {Pa}
  5.1,                                    ! Wind Speed {m/s}
  270,                                    ! Wind Direction {deg}
  0,                                      ! Sky Clearness
  0,                                      ! Rain Indicator
  0,                                      ! Snow Indicator
  21,                                     ! Day of Month
  1,                                      ! Month
  WinterDesignDay,                        ! Day Type
  0,                                      ! Daylight Saving Time Indicator
  Wetbulb,                                ! Humidity Indicating Type
  ,                                       ! Humidity Indicating Day Schedule Name
  DefaultMultipliers,                     ! Dry-Bulb Temperature Range Modifier Type
  ,                                       ! Dry-Bulb Temperature Range Modifier Schedule Name
  ASHRAEClearSky;                         ! Solar Model Indicator

OS:ComponentData,
  {bf055bc4-dd7f-4170-9ba6-d5f9baa9a5d4}, ! Handle
  Component Data 1,                       ! Name
  {c5643ed8-d615-4d24-992c-d410410d8636}, ! UUID
  {f0d1e290-5b35-478e-ab67-34026408d7df}, ! Version UUID
  1366309606,                             ! Creation Timestamp
  1366309606,                             ! Version Timestamp
  {eda8c28f-638e-4267-b548-9b0de2f9be7a}; ! Name of Object 1

