
OS:Version,
  {feec4374-0649-4e8c-8077-bd78d9d12900}, ! Handle
  0.9.3;                                  ! Version Identifier

OS:SizingPeriod:DesignDay,
  {d8a02706-0573-41be-897e-0fd723fa4259}, ! Handle
  Kingman  Amos Ann Clg 1% Condns DP=>MDB, ! Name
  24.6,                                   ! Maximum Dry-Bulb Temperature {C}
  14.3,                                   ! Daily Dry-Bulb Temperature Range {deltaC}
  17.3,                                   ! Humidity Indicating Conditions at Maximum Dry-Bulb {BasedOnField A3}
  89515,                                  ! Barometric Pressure {Pa}
  6.1,                                    ! Wind Speed {m/s}
  230,                                    ! Wind Direction {deg}
  0,                                      ! Sky Clearness
  0,                                      ! Rain Indicator
  0,                                      ! Snow Indicator
  21,                                     ! Day of Month
  7,                                      ! Month
  SummerDesignDay,                        ! Day Type
  0,                                      ! Daylight Saving Time Indicator
  Dewpoint,                               ! Humidity Indicating Type
  ,                                       ! Humidity Indicating Day Schedule Name
  DefaultMultipliers,                     ! Dry-Bulb Temperature Range Modifier Type
  ,                                       ! Dry-Bulb Temperature Range Modifier Schedule Name
  ASHRAETau,                              ! Solar Model Indicator
  ,                                       ! Beam Solar Day Schedule Name
  ,                                       ! Diffuse Solar Day Schedule Name
  0.477,                                  ! ASHRAE Taub {dimensionless}
  1.865;                                  ! ASHRAE Taud {dimensionless}

OS:ComponentData,
  {a8aca082-991e-48e9-a669-4001e3376f9c}, ! Handle
  Component Data 1,                       ! Name
  {cd4e614a-9eac-4884-aa23-963c09d4162f}, ! UUID
  {6077bab2-3276-44ae-8e13-10fb7f0aaf4a}, ! Version UUID
  1366306280,                             ! Creation Timestamp
  1366306280,                             ! Version Timestamp
  {d8a02706-0573-41be-897e-0fd723fa4259}; ! Name of Object 1

