
OS:Version,
  {0148959d-89e7-46bf-9df8-2f4904960258}, ! Handle
  0.9.3;                                  ! Version Identifier

OS:SizingPeriod:DesignDay,
  {42266c77-42ab-4806-8fd0-6d2adc2d4b02}, ! Handle
  Austin Muni Ann Clg 2% Condns Enth=>MDB, ! Name
  27.2,                                   ! Maximum Dry-Bulb Temperature {C}
  10.2,                                   ! Daily Dry-Bulb Temperature Range {deltaC}
  71300,                                  ! Humidity Indicating Conditions at Maximum Dry-Bulb {BasedOnField A3}
  96900,                                  ! Barometric Pressure {Pa}
  5.2,                                    ! Wind Speed {m/s}
  200,                                    ! Wind Direction {deg}
  0,                                      ! Sky Clearness
  0,                                      ! Rain Indicator
  0,                                      ! Snow Indicator
  21,                                     ! Day of Month
  7,                                      ! Month
  SummerDesignDay,                        ! Day Type
  0,                                      ! Daylight Saving Time Indicator
  Enthalpy,                               ! Humidity Indicating Type
  ,                                       ! Humidity Indicating Day Schedule Name
  DefaultMultipliers,                     ! Dry-Bulb Temperature Range Modifier Type
  ,                                       ! Dry-Bulb Temperature Range Modifier Schedule Name
  ASHRAETau,                              ! Solar Model Indicator
  ,                                       ! Beam Solar Day Schedule Name
  ,                                       ! Diffuse Solar Day Schedule Name
  0.407,                                  ! ASHRAE Taub {dimensionless}
  2.215;                                  ! ASHRAE Taud {dimensionless}

OS:ComponentData,
  {bf952b6f-5c93-4cbd-9f28-3bb25c7c4713}, ! Handle
  Component Data 1,                       ! Name
  {455f7c86-8ed0-43b6-8991-45c56bd93792}, ! UUID
  {0c36f72d-7c10-4668-8ac2-5a6159b7ede5}, ! Version UUID
  1366308151,                             ! Creation Timestamp
  1366308151,                             ! Version Timestamp
  {42266c77-42ab-4806-8fd0-6d2adc2d4b02}; ! Name of Object 1

