
OS:Version,
  {fbb4dd16-5f4c-4d8e-b748-00b257e264e1}, ! Handle
  0.9.3;                                  ! Version Identifier

OS:SizingPeriod:DesignDay,
  {da6f9ab3-ae75-4375-b410-5da3d4957f96}, ! Handle
  Joslin Fld Magic Va  Twin Fal Ann Htg Wind 99.6% Condns WS=>MCDB, ! Name
  1.6,                                    ! Maximum Dry-Bulb Temperature {C}
  0,                                      ! Daily Dry-Bulb Temperature Range {deltaC}
  1.6,                                    ! Humidity Indicating Conditions at Maximum Dry-Bulb {BasedOnField A3}
  87716,                                  ! Barometric Pressure {Pa}
  14.7,                                   ! Wind Speed {m/s}
  100,                                    ! Wind Direction {deg}
  0,                                      ! Sky Clearness
  0,                                      ! Rain Indicator
  0,                                      ! Snow Indicator
  21,                                     ! Day of Month
  12,                                     ! Month
  WinterDesignDay,                        ! Day Type
  0,                                      ! Daylight Saving Time Indicator
  Wetbulb,                                ! Humidity Indicating Type
  ,                                       ! Humidity Indicating Day Schedule Name
  DefaultMultipliers,                     ! Dry-Bulb Temperature Range Modifier Type
  ,                                       ! Dry-Bulb Temperature Range Modifier Schedule Name
  ASHRAEClearSky;                         ! Solar Model Indicator

OS:ComponentData,
  {8d88b6ad-124f-45ed-97ac-66f5fad649f2}, ! Handle
  Component Data 1,                       ! Name
  {407c7e4b-e9cf-4190-b20c-19aeb7b5ecc5}, ! UUID
  {59ecd328-5829-47b6-992b-d541c803cf88}, ! Version UUID
  1366307315,                             ! Creation Timestamp
  1366307315,                             ! Version Timestamp
  {da6f9ab3-ae75-4375-b410-5da3d4957f96}; ! Name of Object 1

