
OS:Version,
  {5bc1fa26-f8bd-45a7-bed7-ad0117a5d4ff}, ! Handle
  0.9.3;                                  ! Version Identifier

OS:SizingPeriod:DesignDay,
  {e19a7baa-2ec5-4460-a8dd-b5b30bda6a7f}, ! Handle
  KNOXVILLE Ann Clg 2% Condns DB=>MWB,    ! Name
  31.2,                                   ! Maximum Dry-Bulb Temperature {C}
  10.4,                                   ! Daily Dry-Bulb Temperature Range {deltaC}
  22.9,                                   ! Humidity Indicating Conditions at Maximum Dry-Bulb {BasedOnField A3}
  97784,                                  ! Barometric Pressure {Pa}
  3.2,                                    ! Wind Speed {m/s}
  250,                                    ! Wind Direction {deg}
  0,                                      ! Sky Clearness
  0,                                      ! Rain Indicator
  0,                                      ! Snow Indicator
  21,                                     ! Day of Month
  7,                                      ! Month
  SummerDesignDay,                        ! Day Type
  0,                                      ! Daylight Saving Time Indicator
  Wetbulb,                                ! Humidity Indicating Type
  ,                                       ! Humidity Indicating Day Schedule Name
  DefaultMultipliers,                     ! Dry-Bulb Temperature Range Modifier Type
  ,                                       ! Dry-Bulb Temperature Range Modifier Schedule Name
  ASHRAETau,                              ! Solar Model Indicator
  ,                                       ! Beam Solar Day Schedule Name
  ,                                       ! Diffuse Solar Day Schedule Name
  0.547,                                  ! ASHRAE Taub {dimensionless}
  1.786;                                  ! ASHRAE Taud {dimensionless}

OS:ComponentData,
  {7f2b8a9c-91e4-474b-b93f-5b51f4d23c82}, ! Handle
  Component Data 1,                       ! Name
  {2ee9c43b-07e9-46d7-822b-b5ba930d854e}, ! UUID
  {b687f21c-b9e5-4eb0-b872-4c085c8cbd01}, ! Version UUID
  1366310517,                             ! Creation Timestamp
  1366310517,                             ! Version Timestamp
  {e19a7baa-2ec5-4460-a8dd-b5b30bda6a7f}; ! Name of Object 1

