
OS:Version,
  {9e775bd9-6659-4493-b7ab-e19bb9b28cc7}, ! Handle
  0.9.3;                                  ! Version Identifier

OS:SizingPeriod:DesignDay,
  {c8dc113a-f184-4ae6-9c51-8797dfdb43be}, ! Handle
  BINGHAMTON Ann Htg Wind 99.6% Condns WS=>MCDB, ! Name
  -5.2,                                   ! Maximum Dry-Bulb Temperature {C}
  0,                                      ! Daily Dry-Bulb Temperature Range {deltaC}
  -5.2,                                   ! Humidity Indicating Conditions at Maximum Dry-Bulb {BasedOnField A3}
  95472,                                  ! Barometric Pressure {Pa}
  11.4,                                   ! Wind Speed {m/s}
  250,                                    ! Wind Direction {deg}
  0,                                      ! Sky Clearness
  0,                                      ! Rain Indicator
  0,                                      ! Snow Indicator
  21,                                     ! Day of Month
  1,                                      ! Month
  WinterDesignDay,                        ! Day Type
  0,                                      ! Daylight Saving Time Indicator
  Wetbulb,                                ! Humidity Indicating Type
  ,                                       ! Humidity Indicating Day Schedule Name
  DefaultMultipliers,                     ! Dry-Bulb Temperature Range Modifier Type
  ,                                       ! Dry-Bulb Temperature Range Modifier Schedule Name
  ASHRAEClearSky;                         ! Solar Model Indicator

OS:ComponentData,
  {4f96513b-5516-452b-b6fe-f518ba0d3b80}, ! Handle
  Component Data 1,                       ! Name
  {9a3256fc-1369-41d0-a004-cc23f2bfbc4e}, ! UUID
  {92d0f9af-0fdb-477a-a603-7774a01e7f53}, ! Version UUID
  1366309597,                             ! Creation Timestamp
  1366309597,                             ! Version Timestamp
  {c8dc113a-f184-4ae6-9c51-8797dfdb43be}; ! Name of Object 1

