
OS:Version,
  {e8ae6407-f395-4a88-80c5-2323fde3ba15}, ! Handle
  0.9.3;                                  ! Version Identifier

OS:SizingPeriod:DesignDay,
  {1784ab43-f488-4d89-845d-0736dadd1ba9}, ! Handle
  Islip Long Isl Macarthur Ap Ann Clg 1% Condns Enth=>MDB, ! Name
  27.5,                                   ! Maximum Dry-Bulb Temperature {C}
  8.4,                                    ! Daily Dry-Bulb Temperature Range {deltaC}
  72100,                                  ! Humidity Indicating Conditions at Maximum Dry-Bulb {BasedOnField A3}
  101013,                                 ! Barometric Pressure {Pa}
  4.9,                                    ! Wind Speed {m/s}
  220,                                    ! Wind Direction {deg}
  0,                                      ! Sky Clearness
  0,                                      ! Rain Indicator
  0,                                      ! Snow Indicator
  21,                                     ! Day of Month
  7,                                      ! Month
  SummerDesignDay,                        ! Day Type
  0,                                      ! Daylight Saving Time Indicator
  Enthalpy,                               ! Humidity Indicating Type
  ,                                       ! Humidity Indicating Day Schedule Name
  DefaultMultipliers,                     ! Dry-Bulb Temperature Range Modifier Type
  ,                                       ! Dry-Bulb Temperature Range Modifier Schedule Name
  ASHRAETau,                              ! Solar Model Indicator
  ,                                       ! Beam Solar Day Schedule Name
  ,                                       ! Diffuse Solar Day Schedule Name
  0.533,                                  ! ASHRAE Taub {dimensionless}
  1.82;                                   ! ASHRAE Taud {dimensionless}

OS:ComponentData,
  {799cebd1-2779-4536-97de-9905b8bb2f41}, ! Handle
  Component Data 1,                       ! Name
  {71f5bcec-1add-4889-be05-ab01307cb9f4}, ! UUID
  {1fa1f390-3c5a-491b-bfa7-6e3693c79cd7}, ! Version UUID
  1366309632,                             ! Creation Timestamp
  1366309632,                             ! Version Timestamp
  {1784ab43-f488-4d89-845d-0736dadd1ba9}; ! Name of Object 1

