
OS:Version,
  {4dfe2a3f-419c-4cf9-a3ea-8d5288e19c47}, ! Handle
  0.9.3;                                  ! Version Identifier

OS:SizingPeriod:DesignDay,
  {b39f73b4-0791-4fd6-a7ae-d21be365f138}, ! Handle
  Hattiesburg Laurel Ann Clg 2% Condns DP=>MDB, ! Name
  27.5,                                   ! Maximum Dry-Bulb Temperature {C}
  10.9,                                   ! Daily Dry-Bulb Temperature Range {deltaC}
  22.9,                                   ! Humidity Indicating Conditions at Maximum Dry-Bulb {BasedOnField A3}
  100213,                                 ! Barometric Pressure {Pa}
  2.1,                                    ! Wind Speed {m/s}
  330,                                    ! Wind Direction {deg}
  0,                                      ! Sky Clearness
  0,                                      ! Rain Indicator
  0,                                      ! Snow Indicator
  21,                                     ! Day of Month
  7,                                      ! Month
  SummerDesignDay,                        ! Day Type
  0,                                      ! Daylight Saving Time Indicator
  Dewpoint,                               ! Humidity Indicating Type
  ,                                       ! Humidity Indicating Day Schedule Name
  DefaultMultipliers,                     ! Dry-Bulb Temperature Range Modifier Type
  ,                                       ! Dry-Bulb Temperature Range Modifier Schedule Name
  ASHRAETau,                              ! Solar Model Indicator
  ,                                       ! Beam Solar Day Schedule Name
  ,                                       ! Diffuse Solar Day Schedule Name
  0.55,                                   ! ASHRAE Taub {dimensionless}
  1.826;                                  ! ASHRAE Taud {dimensionless}

OS:ComponentData,
  {ea0b0cce-2da3-446e-a863-12c40ea40b14}, ! Handle
  Component Data 1,                       ! Name
  {2dd626fc-fa1d-40e8-8be8-97e9a0ce97aa}, ! UUID
  {48f3ad8c-7ce3-4868-a079-524731b89d08}, ! Version UUID
  1366308635,                             ! Creation Timestamp
  1366308635,                             ! Version Timestamp
  {b39f73b4-0791-4fd6-a7ae-d21be365f138}; ! Name of Object 1

