
OS:Version,
  {94c17af0-44b9-4ef9-8ac6-7d9f9c877639}, ! Handle
  0.9.3;                                  ! Version Identifier

OS:SizingPeriod:DesignDay,
  {54315d10-fe62-41cb-9d54-0ff8b2e17a69}, ! Handle
  LOS_ANGELES Ann Hum_n 99.6% Condns DP=>MCDB, ! Name
  15.2,                                   ! Maximum Dry-Bulb Temperature {C}
  0,                                      ! Daily Dry-Bulb Temperature Range {deltaC}
  -10.6,                                  ! Humidity Indicating Conditions at Maximum Dry-Bulb {BasedOnField A3}
  100941,                                 ! Barometric Pressure {Pa}
  2.4,                                    ! Wind Speed {m/s}
  90,                                     ! Wind Direction {deg}
  0,                                      ! Sky Clearness
  0,                                      ! Rain Indicator
  0,                                      ! Snow Indicator
  21,                                     ! Day of Month
  1,                                      ! Month
  WinterDesignDay,                        ! Day Type
  0,                                      ! Daylight Saving Time Indicator
  Dewpoint,                               ! Humidity Indicating Type
  ,                                       ! Humidity Indicating Day Schedule Name
  DefaultMultipliers,                     ! Dry-Bulb Temperature Range Modifier Type
  ,                                       ! Dry-Bulb Temperature Range Modifier Schedule Name
  ASHRAEClearSky;                         ! Solar Model Indicator

OS:ComponentData,
  {3aba2204-290d-4b2e-86e2-0ef6faa84681}, ! Handle
  Component Data 1,                       ! Name
  {e56bedc2-183c-454a-a533-bb81d2eafdaa}, ! UUID
  {b270eb96-bf6d-42af-aa9e-47d146557ff5}, ! Version UUID
  1366306477,                             ! Creation Timestamp
  1366306477,                             ! Version Timestamp
  {54315d10-fe62-41cb-9d54-0ff8b2e17a69}; ! Name of Object 1

