
OS:Version,
  {70b02ff4-9ddc-476f-9bb2-f097451e88aa}, ! Handle
  0.9.3;                                  ! Version Identifier

OS:SizingPeriod:DesignDay,
  {5634f532-7402-4d42-9be4-4ca9e6483603}, ! Handle
  Butte Bert Mooney Arpt Ann Clg 1% Condns DP=>MDB, ! Name
  16.9,                                   ! Maximum Dry-Bulb Temperature {C}
  18.3,                                   ! Daily Dry-Bulb Temperature Range {deltaC}
  11.6,                                   ! Humidity Indicating Conditions at Maximum Dry-Bulb {BasedOnField A3}
  82613,                                  ! Barometric Pressure {Pa}
  5,                                      ! Wind Speed {m/s}
  0,                                      ! Wind Direction {deg}
  0,                                      ! Sky Clearness
  0,                                      ! Rain Indicator
  0,                                      ! Snow Indicator
  21,                                     ! Day of Month
  7,                                      ! Month
  SummerDesignDay,                        ! Day Type
  0,                                      ! Daylight Saving Time Indicator
  Dewpoint,                               ! Humidity Indicating Type
  ,                                       ! Humidity Indicating Day Schedule Name
  DefaultMultipliers,                     ! Dry-Bulb Temperature Range Modifier Type
  ,                                       ! Dry-Bulb Temperature Range Modifier Schedule Name
  ASHRAETau,                              ! Solar Model Indicator
  ,                                       ! Beam Solar Day Schedule Name
  ,                                       ! Diffuse Solar Day Schedule Name
  0.352,                                  ! ASHRAE Taub {dimensionless}
  2.312;                                  ! ASHRAE Taud {dimensionless}

