
OS:Version,
  {9d71124a-8f21-4b67-b529-03964567ce3f}, ! Handle
  0.9.3;                                  ! Version Identifier

OS:SizingPeriod:DesignDay,
  {f6f41b47-2617-49da-9863-a90ea5ec7ba5}, ! Handle
  Fairbanks Eielson A Ann Clg 1% Condns DP=>MDB, ! Name
  18.1,                                   ! Maximum Dry-Bulb Temperature {C}
  10.7,                                   ! Daily Dry-Bulb Temperature Range {deltaC}
  13.9,                                   ! Humidity Indicating Conditions at Maximum Dry-Bulb {BasedOnField A3}
  99335,                                  ! Barometric Pressure {Pa}
  2.7,                                    ! Wind Speed {m/s}
  270,                                    ! Wind Direction {deg}
  0,                                      ! Sky Clearness
  0,                                      ! Rain Indicator
  0,                                      ! Snow Indicator
  21,                                     ! Day of Month
  7,                                      ! Month
  SummerDesignDay,                        ! Day Type
  0,                                      ! Daylight Saving Time Indicator
  Dewpoint,                               ! Humidity Indicating Type
  ,                                       ! Humidity Indicating Day Schedule Name
  DefaultMultipliers,                     ! Dry-Bulb Temperature Range Modifier Type
  ,                                       ! Dry-Bulb Temperature Range Modifier Schedule Name
  ASHRAETau,                              ! Solar Model Indicator
  ,                                       ! Beam Solar Day Schedule Name
  ,                                       ! Diffuse Solar Day Schedule Name
  0.386,                                  ! ASHRAE Taub {dimensionless}
  2.208;                                  ! ASHRAE Taud {dimensionless}

OS:ComponentData,
  {79c4e89b-86d5-4f86-a688-0951a1397b84}, ! Handle
  Component Data 1,                       ! Name
  {a70bc352-0e82-4a45-9141-1f774931a62b}, ! UUID
  {39e42db7-d091-4d93-bbe8-377872beb84f}, ! Version UUID
  1366305245,                             ! Creation Timestamp
  1366305245,                             ! Version Timestamp
  {f6f41b47-2617-49da-9863-a90ea5ec7ba5}; ! Name of Object 1

