
OS:Version,
  {27190579-2181-41ec-ae80-e1d57969328f}, ! Handle
  0.9.3;                                  ! Version Identifier

OS:SizingPeriod:DesignDay,
  {cf3b34eb-fe03-4554-9c0d-ba64c0a1fe5c}, ! Handle
  Colorado Springs Ann Clg 2% Condns DB=>MWB, ! Name
  29.4,                                   ! Maximum Dry-Bulb Temperature {C}
  14.5,                                   ! Daily Dry-Bulb Temperature Range {deltaC}
  14.6,                                   ! Humidity Indicating Conditions at Maximum Dry-Bulb {BasedOnField A3}
  80677,                                  ! Barometric Pressure {Pa}
  5.4,                                    ! Wind Speed {m/s}
  170,                                    ! Wind Direction {deg}
  0,                                      ! Sky Clearness
  0,                                      ! Rain Indicator
  0,                                      ! Snow Indicator
  21,                                     ! Day of Month
  7,                                      ! Month
  SummerDesignDay,                        ! Day Type
  0,                                      ! Daylight Saving Time Indicator
  Wetbulb,                                ! Humidity Indicating Type
  ,                                       ! Humidity Indicating Day Schedule Name
  DefaultMultipliers,                     ! Dry-Bulb Temperature Range Modifier Type
  ,                                       ! Dry-Bulb Temperature Range Modifier Schedule Name
  ASHRAETau,                              ! Solar Model Indicator
  ,                                       ! Beam Solar Day Schedule Name
  ,                                       ! Diffuse Solar Day Schedule Name
  0.408,                                  ! ASHRAE Taub {dimensionless}
  2.047;                                  ! ASHRAE Taud {dimensionless}

OS:ComponentData,
  {a38594af-26c2-4a73-9d4a-5898c4dd87a2}, ! Handle
  Component Data 1,                       ! Name
  {f650eb8a-941b-4663-929d-8158703b9a46}, ! UUID
  {8d2cf37e-aa58-4c72-8247-142d27e2aa9c}, ! Version UUID
  1366306658,                             ! Creation Timestamp
  1366306658,                             ! Version Timestamp
  {cf3b34eb-fe03-4554-9c0d-ba64c0a1fe5c}; ! Name of Object 1

