
OS:Version,
  {513c62e7-be19-4fef-ba54-e135ed073f16}, ! Handle
  0.9.3;                                  ! Version Identifier

OS:SizingPeriod:DesignDay,
  {00092e50-3900-4a86-a5b5-717eeea551b5}, ! Handle
  EAU_CLAIRE Ann Clg 1% Condns Enth=>MDB, ! Name
  28.7,                                   ! Maximum Dry-Bulb Temperature {C}
  11.5,                                   ! Daily Dry-Bulb Temperature Range {deltaC}
  71000,                                  ! Humidity Indicating Conditions at Maximum Dry-Bulb {BasedOnField A3}
  98088,                                  ! Barometric Pressure {Pa}
  5.2,                                    ! Wind Speed {m/s}
  190,                                    ! Wind Direction {deg}
  0,                                      ! Sky Clearness
  0,                                      ! Rain Indicator
  0,                                      ! Snow Indicator
  21,                                     ! Day of Month
  7,                                      ! Month
  SummerDesignDay,                        ! Day Type
  0,                                      ! Daylight Saving Time Indicator
  Enthalpy,                               ! Humidity Indicating Type
  ,                                       ! Humidity Indicating Day Schedule Name
  DefaultMultipliers,                     ! Dry-Bulb Temperature Range Modifier Type
  ,                                       ! Dry-Bulb Temperature Range Modifier Schedule Name
  ASHRAETau,                              ! Solar Model Indicator
  ,                                       ! Beam Solar Day Schedule Name
  ,                                       ! Diffuse Solar Day Schedule Name
  0.412,                                  ! ASHRAE Taub {dimensionless}
  2.189;                                  ! ASHRAE Taud {dimensionless}

OS:ComponentData,
  {f26436b3-67e3-49f4-93ee-886fadc1928c}, ! Handle
  Component Data 1,                       ! Name
  {d14bbac2-8ad4-4734-b6a3-4d6fded8c6e8}, ! UUID
  {cdac317d-5f01-435a-97b2-066fe52b7dee}, ! Version UUID
  1366311465,                             ! Creation Timestamp
  1366311465,                             ! Version Timestamp
  {00092e50-3900-4a86-a5b5-717eeea551b5}; ! Name of Object 1

