
OS:Version,
  {bb4d3624-25d4-423e-92ae-95c60955b586}, ! Handle
  0.9.3;                                  ! Version Identifier

OS:SizingPeriod:DesignDay,
  {59ccc516-4c1f-4dd7-8116-7309c64d2462}, ! Handle
  Elkins Elkins Randolph Co Arp Ann Clg 2% Condns DP=>MDB, ! Name
  24.1,                                   ! Maximum Dry-Bulb Temperature {C}
  12,                                     ! Daily Dry-Bulb Temperature Range {deltaC}
  20.2,                                   ! Humidity Indicating Conditions at Maximum Dry-Bulb {BasedOnField A3}
  94390,                                  ! Barometric Pressure {Pa}
  3.2,                                    ! Wind Speed {m/s}
  300,                                    ! Wind Direction {deg}
  0,                                      ! Sky Clearness
  0,                                      ! Rain Indicator
  0,                                      ! Snow Indicator
  21,                                     ! Day of Month
  7,                                      ! Month
  SummerDesignDay,                        ! Day Type
  0,                                      ! Daylight Saving Time Indicator
  Dewpoint,                               ! Humidity Indicating Type
  ,                                       ! Humidity Indicating Day Schedule Name
  DefaultMultipliers,                     ! Dry-Bulb Temperature Range Modifier Type
  ,                                       ! Dry-Bulb Temperature Range Modifier Schedule Name
  ASHRAETau,                              ! Solar Model Indicator
  ,                                       ! Beam Solar Day Schedule Name
  ,                                       ! Diffuse Solar Day Schedule Name
  0.489,                                  ! ASHRAE Taub {dimensionless}
  1.911;                                  ! ASHRAE Taud {dimensionless}

OS:ComponentData,
  {4f316f58-64b7-4835-aa24-40875000c49e}, ! Handle
  Component Data 1,                       ! Name
  {9879970b-5bcf-42a0-a975-4f5f35b1dd96}, ! UUID
  {70a43560-c22a-4e2a-a96a-18277862c857}, ! Version UUID
  1366311642,                             ! Creation Timestamp
  1366311642,                             ! Version Timestamp
  {59ccc516-4c1f-4dd7-8116-7309c64d2462}; ! Name of Object 1

