
OS:Version,
  {eeef9b6a-239d-49cd-b6ed-63b31f4831b9}, ! Handle
  0.9.3;                                  ! Version Identifier

OS:SizingPeriod:DesignDay,
  {b1ee4115-6dd8-4f27-90e4-f9ebbb272347}, ! Handle
  ANCHORAGE Ann Htg Wind 99.6% Condns WS=>MCDB, ! Name
  -5.1,                                   ! Maximum Dry-Bulb Temperature {C}
  0,                                      ! Daily Dry-Bulb Temperature Range {deltaC}
  -5.1,                                   ! Humidity Indicating Conditions at Maximum Dry-Bulb {BasedOnField A3}
  100905,                                 ! Barometric Pressure {Pa}
  11,                                     ! Wind Speed {m/s}
  350,                                    ! Wind Direction {deg}
  0,                                      ! Sky Clearness
  0,                                      ! Rain Indicator
  0,                                      ! Snow Indicator
  21,                                     ! Day of Month
  1,                                      ! Month
  WinterDesignDay,                        ! Day Type
  0,                                      ! Daylight Saving Time Indicator
  Wetbulb,                                ! Humidity Indicating Type
  ,                                       ! Humidity Indicating Day Schedule Name
  DefaultMultipliers,                     ! Dry-Bulb Temperature Range Modifier Type
  ,                                       ! Dry-Bulb Temperature Range Modifier Schedule Name
  ASHRAEClearSky;                         ! Solar Model Indicator

OS:ComponentData,
  {ad4eddca-735d-4170-b4ce-b6646926a8c8}, ! Handle
  Component Data 1,                       ! Name
  {586af481-6feb-4f9e-885a-f64a40f70aec}, ! UUID
  {e89c677e-c118-4c5b-9dd5-86157dd137e4}, ! Version UUID
  1366304703,                             ! Creation Timestamp
  1366304703,                             ! Version Timestamp
  {b1ee4115-6dd8-4f27-90e4-f9ebbb272347}; ! Name of Object 1

