
OS:Version,
  {68b7b60f-d77d-4614-a1f4-7f84486339b6}, ! Handle
  0.9.3;                                  ! Version Identifier

OS:SizingPeriod:DesignDay,
  {f3fbfee0-f4e6-4df8-a9c7-f0ea7e245d0a}, ! Handle
  Caribou Ann Htg 99% Condns DB,          ! Name
  -23.4,                                  ! Maximum Dry-Bulb Temperature {C}
  0,                                      ! Daily Dry-Bulb Temperature Range {deltaC}
  -23.4,                                  ! Humidity Indicating Conditions at Maximum Dry-Bulb {BasedOnField A3}
  99063,                                  ! Barometric Pressure {Pa}
  3.1,                                    ! Wind Speed {m/s}
  290,                                    ! Wind Direction {deg}
  0,                                      ! Sky Clearness
  0,                                      ! Rain Indicator
  0,                                      ! Snow Indicator
  21,                                     ! Day of Month
  1,                                      ! Month
  WinterDesignDay,                        ! Day Type
  0,                                      ! Daylight Saving Time Indicator
  Wetbulb,                                ! Humidity Indicating Type
  ,                                       ! Humidity Indicating Day Schedule Name
  DefaultMultipliers,                     ! Dry-Bulb Temperature Range Modifier Type
  ,                                       ! Dry-Bulb Temperature Range Modifier Schedule Name
  ASHRAEClearSky;                         ! Solar Model Indicator

OS:ComponentData,
  {db7bde40-33ca-4271-b81c-54fa691ce77d}, ! Handle
  Component Data 1,                       ! Name
  {d37dd808-4678-44d0-b743-ef35a5c94375}, ! UUID
  {9bf62b4e-9256-4410-a6cf-c8e546dd6c47}, ! Version UUID
  1366307890,                             ! Creation Timestamp
  1366307890,                             ! Version Timestamp
  {f3fbfee0-f4e6-4df8-a9c7-f0ea7e245d0a}; ! Name of Object 1

