
OS:Version,
  {5be4560b-ccc3-4d1f-b246-abc64c4cebe1}, ! Handle
  0.9.3;                                  ! Version Identifier

OS:SizingPeriod:DesignDay,
  {6e19b89d-a550-4725-a114-2816aab103ca}, ! Handle
  Hartford Bradley Intl Ap Ann Htg Wind 99% Condns WS=>MCDB, ! Name
  -3.3,                                   ! Maximum Dry-Bulb Temperature {C}
  0,                                      ! Daily Dry-Bulb Temperature Range {deltaC}
  -3.3,                                   ! Humidity Indicating Conditions at Maximum Dry-Bulb {BasedOnField A3}
  100738,                                 ! Barometric Pressure {Pa}
  10.7,                                   ! Wind Speed {m/s}
  330,                                    ! Wind Direction {deg}
  0,                                      ! Sky Clearness
  0,                                      ! Rain Indicator
  0,                                      ! Snow Indicator
  21,                                     ! Day of Month
  1,                                      ! Month
  WinterDesignDay,                        ! Day Type
  0,                                      ! Daylight Saving Time Indicator
  Wetbulb,                                ! Humidity Indicating Type
  ,                                       ! Humidity Indicating Day Schedule Name
  DefaultMultipliers,                     ! Dry-Bulb Temperature Range Modifier Type
  ,                                       ! Dry-Bulb Temperature Range Modifier Schedule Name
  ASHRAEClearSky;                         ! Solar Model Indicator

OS:ComponentData,
  {63f0b288-b187-4d77-9a69-940f180c01c9}, ! Handle
  Component Data 1,                       ! Name
  {3bd841c0-8c45-4289-bd95-c5e5f5777b0f}, ! UUID
  {bb60874d-a0c3-48b7-a3f5-81f8f4371dee}, ! Version UUID
  1366306757,                             ! Creation Timestamp
  1366306757,                             ! Version Timestamp
  {6e19b89d-a550-4725-a114-2816aab103ca}; ! Name of Object 1

