
OS:Version,
  {3b8675c5-acd7-474e-815f-5843430cc5cd}, ! Handle
  0.9.3;                                  ! Version Identifier

OS:SizingPeriod:DesignDay,
  {295d6a29-10fa-43e8-9d50-4b0f7186e47e}, ! Handle
  Kansas City Downtown Ap Ann Hum_n 99% Condns DP=>MCDB, ! Name
  -11.7,                                  ! Maximum Dry-Bulb Temperature {C}
  0,                                      ! Daily Dry-Bulb Temperature Range {deltaC}
  -19.1,                                  ! Humidity Indicating Conditions at Maximum Dry-Bulb {BasedOnField A3}
  98639,                                  ! Barometric Pressure {Pa}
  4.4,                                    ! Wind Speed {m/s}
  0,                                      ! Wind Direction {deg}
  0,                                      ! Sky Clearness
  0,                                      ! Rain Indicator
  0,                                      ! Snow Indicator
  21,                                     ! Day of Month
  1,                                      ! Month
  WinterDesignDay,                        ! Day Type
  0,                                      ! Daylight Saving Time Indicator
  Dewpoint,                               ! Humidity Indicating Type
  ,                                       ! Humidity Indicating Day Schedule Name
  DefaultMultipliers,                     ! Dry-Bulb Temperature Range Modifier Type
  ,                                       ! Dry-Bulb Temperature Range Modifier Schedule Name
  ASHRAEClearSky;                         ! Solar Model Indicator

OS:ComponentData,
  {6890efee-630b-45e8-ac88-5def26278ced}, ! Handle
  Component Data 1,                       ! Name
  {e958735e-cc46-4f10-aadf-7b26eaa9520a}, ! UUID
  {01931c7f-51d3-4139-affe-951687a70e3a}, ! Version UUID
  1366308526,                             ! Creation Timestamp
  1366308526,                             ! Version Timestamp
  {295d6a29-10fa-43e8-9d50-4b0f7186e47e}; ! Name of Object 1

