
OS:Version,
  {14da6c5a-1965-4d05-9699-16999abbf0cb}, ! Handle
  0.9.3;                                  ! Version Identifier

OS:SizingPeriod:DesignDay,
  {89ad7fc7-fb0d-4bf0-a5ba-bb449a6befa1}, ! Handle
  Kalispell Glacier Pk IntL Ar Ann Clg .4% Condns WB=>MDB, ! Name
  28.2,                                   ! Maximum Dry-Bulb Temperature {C}
  17,                                     ! Daily Dry-Bulb Temperature Range {deltaC}
  18.5,                                   ! Humidity Indicating Conditions at Maximum Dry-Bulb {BasedOnField A3}
  90904,                                  ! Barometric Pressure {Pa}
  3.6,                                    ! Wind Speed {m/s}
  160,                                    ! Wind Direction {deg}
  0,                                      ! Sky Clearness
  0,                                      ! Rain Indicator
  0,                                      ! Snow Indicator
  21,                                     ! Day of Month
  7,                                      ! Month
  SummerDesignDay,                        ! Day Type
  0,                                      ! Daylight Saving Time Indicator
  Wetbulb,                                ! Humidity Indicating Type
  ,                                       ! Humidity Indicating Day Schedule Name
  DefaultMultipliers,                     ! Dry-Bulb Temperature Range Modifier Type
  ,                                       ! Dry-Bulb Temperature Range Modifier Schedule Name
  ASHRAETau,                              ! Solar Model Indicator
  ,                                       ! Beam Solar Day Schedule Name
  ,                                       ! Diffuse Solar Day Schedule Name
  0.355,                                  ! ASHRAE Taub {dimensionless}
  2.406;                                  ! ASHRAE Taud {dimensionless}

OS:ComponentData,
  {b2c57c19-e9cd-43ac-be49-9841194f46db}, ! Handle
  Component Data 1,                       ! Name
  {76ab38a1-a2f0-4fd2-8754-3880b51c0459}, ! UUID
  {f2e4fba8-d437-4c17-895d-3f05d115a696}, ! Version UUID
  1366308803,                             ! Creation Timestamp
  1366308803,                             ! Version Timestamp
  {89ad7fc7-fb0d-4bf0-a5ba-bb449a6befa1}; ! Name of Object 1

