
OS:Version,
  {24aa1b3f-ec17-4a8e-a298-465f419c9ef8}, ! Handle
  0.9.3;                                  ! Version Identifier

OS:SizingPeriod:DesignDay,
  {9f714c23-2cea-4b42-8f69-2fec4c7da198}, ! Handle
  Cheyenne/Warren AFB Ann Htg 99% Condns DB, ! Name
  -16.8,                                  ! Maximum Dry-Bulb Temperature {C}
  0,                                      ! Daily Dry-Bulb Temperature Range {deltaC}
  -16.8,                                  ! Humidity Indicating Conditions at Maximum Dry-Bulb {BasedOnField A3}
  80767,                                  ! Barometric Pressure {Pa}
  4.2,                                    ! Wind Speed {m/s}
  0,                                      ! Wind Direction {deg}
  0,                                      ! Sky Clearness
  0,                                      ! Rain Indicator
  0,                                      ! Snow Indicator
  21,                                     ! Day of Month
  12,                                     ! Month
  WinterDesignDay,                        ! Day Type
  0,                                      ! Daylight Saving Time Indicator
  Wetbulb,                                ! Humidity Indicating Type
  ,                                       ! Humidity Indicating Day Schedule Name
  DefaultMultipliers,                     ! Dry-Bulb Temperature Range Modifier Type
  ,                                       ! Dry-Bulb Temperature Range Modifier Schedule Name
  ASHRAEClearSky;                         ! Solar Model Indicator

OS:ComponentData,
  {4359d627-468f-40db-9df7-f7a291a59c40}, ! Handle
  Component Data 1,                       ! Name
  {6f25836c-e9af-4d92-bf2a-5b5c88a70d43}, ! UUID
  {35c7862a-8195-450f-9f15-1b081229f558}, ! Version UUID
  1366311705,                             ! Creation Timestamp
  1366311705,                             ! Version Timestamp
  {9f714c23-2cea-4b42-8f69-2fec4c7da198}; ! Name of Object 1

