
OS:Version,
  {d9adb469-9e96-45a3-aa1a-da666d184a13}, ! Handle
  0.9.3;                                  ! Version Identifier

OS:SizingPeriod:DesignDay,
  {483e031d-db72-45c6-b5d5-ff3047b9cc33}, ! Handle
  Berlin Municipal Ann Clg 2% Condns Enth=>MDB, ! Name
  25,                                     ! Maximum Dry-Bulb Temperature {C}
  13.8,                                   ! Daily Dry-Bulb Temperature Range {deltaC}
  59000,                                  ! Humidity Indicating Conditions at Maximum Dry-Bulb {BasedOnField A3}
  97156,                                  ! Barometric Pressure {Pa}
  3,                                      ! Wind Speed {m/s}
  290,                                    ! Wind Direction {deg}
  0,                                      ! Sky Clearness
  0,                                      ! Rain Indicator
  0,                                      ! Snow Indicator
  21,                                     ! Day of Month
  7,                                      ! Month
  SummerDesignDay,                        ! Day Type
  0,                                      ! Daylight Saving Time Indicator
  Enthalpy,                               ! Humidity Indicating Type
  ,                                       ! Humidity Indicating Day Schedule Name
  DefaultMultipliers,                     ! Dry-Bulb Temperature Range Modifier Type
  ,                                       ! Dry-Bulb Temperature Range Modifier Schedule Name
  ASHRAETau,                              ! Solar Model Indicator
  ,                                       ! Beam Solar Day Schedule Name
  ,                                       ! Diffuse Solar Day Schedule Name
  0.442,                                  ! ASHRAE Taub {dimensionless}
  2.043;                                  ! ASHRAE Taud {dimensionless}

OS:ComponentData,
  {9e9df7e2-5515-4832-9c03-a300e62e0fd5}, ! Handle
  Component Data 1,                       ! Name
  {8b8a38db-e91d-4a70-8601-c7cdb3d7840d}, ! UUID
  {eed1cbcb-c9c2-4a1a-a29c-64cfbb3a5d2c}, ! Version UUID
  1366309216,                             ! Creation Timestamp
  1366309216,                             ! Version Timestamp
  {483e031d-db72-45c6-b5d5-ff3047b9cc33}; ! Name of Object 1

