
OS:Version,
  {f7761e9d-ff1e-4554-8bb5-e5af9bccedc9}, ! Handle
  0.9.3;                                  ! Version Identifier

OS:SizingPeriod:DesignDay,
  {efcd8789-f234-4734-a52e-abcdbaf516d8}, ! Handle
  Albany County Ap Ann Clg .4% Condns DB=>MWB, ! Name
  31.7,                                   ! Maximum Dry-Bulb Temperature {C}
  11.1,                                   ! Daily Dry-Bulb Temperature Range {deltaC}
  22.8,                                   ! Humidity Indicating Conditions at Maximum Dry-Bulb {BasedOnField A3}
  100320,                                 ! Barometric Pressure {Pa}
  4.4,                                    ! Wind Speed {m/s}
  180,                                    ! Wind Direction {deg}
  0,                                      ! Sky Clearness
  0,                                      ! Rain Indicator
  0,                                      ! Snow Indicator
  21,                                     ! Day of Month
  7,                                      ! Month
  SummerDesignDay,                        ! Day Type
  0,                                      ! Daylight Saving Time Indicator
  Wetbulb,                                ! Humidity Indicating Type
  ,                                       ! Humidity Indicating Day Schedule Name
  DefaultMultipliers,                     ! Dry-Bulb Temperature Range Modifier Type
  ,                                       ! Dry-Bulb Temperature Range Modifier Schedule Name
  ASHRAETau,                              ! Solar Model Indicator
  ,                                       ! Beam Solar Day Schedule Name
  ,                                       ! Diffuse Solar Day Schedule Name
  0.49,                                   ! ASHRAE Taub {dimensionless}
  1.923;                                  ! ASHRAE Taud {dimensionless}

OS:ComponentData,
  {2c7eca95-6898-4a06-831f-bfb3239e72a9}, ! Handle
  Component Data 1,                       ! Name
  {de491160-4f1e-44ce-9380-4337e781ab99}, ! UUID
  {74fdf0a9-ebfe-4bf2-8f06-346b6e65f7e3}, ! Version UUID
  1366309584,                             ! Creation Timestamp
  1366309584,                             ! Version Timestamp
  {efcd8789-f234-4734-a52e-abcdbaf516d8}; ! Name of Object 1

