
OS:Version,
  {282b6a61-5ac2-43b8-8f80-fecb179902a9}, ! Handle
  0.9.3;                                  ! Version Identifier

OS:SizingPeriod:DesignDay,
  {3af57149-13eb-4df5-a602-68a8dddbda6b}, ! Handle
  Atlanta Hartsfield Intl Ap Ann Clg 1% Condns Enth=>MDB, ! Name
  30.4,                                   ! Maximum Dry-Bulb Temperature {C}
  9.5,                                    ! Daily Dry-Bulb Temperature Range {deltaC}
  75600,                                  ! Humidity Indicating Conditions at Maximum Dry-Bulb {BasedOnField A3}
  97679,                                  ! Barometric Pressure {Pa}
  4,                                      ! Wind Speed {m/s}
  300,                                    ! Wind Direction {deg}
  0,                                      ! Sky Clearness
  0,                                      ! Rain Indicator
  0,                                      ! Snow Indicator
  21,                                     ! Day of Month
  7,                                      ! Month
  SummerDesignDay,                        ! Day Type
  0,                                      ! Daylight Saving Time Indicator
  Enthalpy,                               ! Humidity Indicating Type
  ,                                       ! Humidity Indicating Day Schedule Name
  DefaultMultipliers,                     ! Dry-Bulb Temperature Range Modifier Type
  ,                                       ! Dry-Bulb Temperature Range Modifier Schedule Name
  ASHRAETau,                              ! Solar Model Indicator
  ,                                       ! Beam Solar Day Schedule Name
  ,                                       ! Diffuse Solar Day Schedule Name
  0.556,                                  ! ASHRAE Taub {dimensionless}
  1.779;                                  ! ASHRAE Taud {dimensionless}

