
OS:Version,
  {97542d20-7d2f-4531-b366-efe9598b5b55}, ! Handle
  0.9.3;                                  ! Version Identifier

OS:SizingPeriod:DesignDay,
  {d29fba7a-03f7-4f73-a6d0-408570935825}, ! Handle
  Denver Intl Ap Ann Htg 99.6% Condns DB, ! Name
  -17.4,                                  ! Maximum Dry-Bulb Temperature {C}
  0,                                      ! Daily Dry-Bulb Temperature Range {deltaC}
  -17.4,                                  ! Humidity Indicating Conditions at Maximum Dry-Bulb {BasedOnField A3}
  83011,                                  ! Barometric Pressure {Pa}
  3.3,                                    ! Wind Speed {m/s}
  160,                                    ! Wind Direction {deg}
  0,                                      ! Sky Clearness
  0,                                      ! Rain Indicator
  0,                                      ! Snow Indicator
  21,                                     ! Day of Month
  12,                                     ! Month
  WinterDesignDay,                        ! Day Type
  0,                                      ! Daylight Saving Time Indicator
  Wetbulb,                                ! Humidity Indicating Type
  ,                                       ! Humidity Indicating Day Schedule Name
  DefaultMultipliers,                     ! Dry-Bulb Temperature Range Modifier Type
  ,                                       ! Dry-Bulb Temperature Range Modifier Schedule Name
  ASHRAEClearSky;                         ! Solar Model Indicator

OS:ComponentData,
  {61c787c8-39c8-47c3-bc1f-52aabbbc6d0b}, ! Handle
  Component Data 1,                       ! Name
  {980da634-6588-4e80-9ac5-ef50a954c21b}, ! UUID
  {03928148-be27-42ac-b503-8a0424a7333e}, ! Version UUID
  1366306677,                             ! Creation Timestamp
  1366306677,                             ! Version Timestamp
  {d29fba7a-03f7-4f73-a6d0-408570935825}; ! Name of Object 1

