
OS:Version,
  {fc9a6ab8-f383-47ae-bb8d-55a4a94d5737}, ! Handle
  0.9.3;                                  ! Version Identifier

OS:SizingPeriod:DesignDay,
  {3577c6a0-3bdb-49bd-a439-e57252ff11b0}, ! Handle
  Appleton Outagamie Ann Clg 2% Condns DB=>MWB, ! Name
  27.9,                                   ! Maximum Dry-Bulb Temperature {C}
  10,                                     ! Daily Dry-Bulb Temperature Range {deltaC}
  21.5,                                   ! Humidity Indicating Conditions at Maximum Dry-Bulb {BasedOnField A3}
  98006,                                  ! Barometric Pressure {Pa}
  5.3,                                    ! Wind Speed {m/s}
  210,                                    ! Wind Direction {deg}
  0,                                      ! Sky Clearness
  0,                                      ! Rain Indicator
  0,                                      ! Snow Indicator
  21,                                     ! Day of Month
  7,                                      ! Month
  SummerDesignDay,                        ! Day Type
  0,                                      ! Daylight Saving Time Indicator
  Wetbulb,                                ! Humidity Indicating Type
  ,                                       ! Humidity Indicating Day Schedule Name
  DefaultMultipliers,                     ! Dry-Bulb Temperature Range Modifier Type
  ,                                       ! Dry-Bulb Temperature Range Modifier Schedule Name
  ASHRAETau,                              ! Solar Model Indicator
  ,                                       ! Beam Solar Day Schedule Name
  ,                                       ! Diffuse Solar Day Schedule Name
  0.429,                                  ! ASHRAE Taub {dimensionless}
  2.121;                                  ! ASHRAE Taud {dimensionless}

OS:ComponentData,
  {6ea78c33-d45d-4924-8f45-01d4df70414d}, ! Handle
  Component Data 1,                       ! Name
  {c7aada8d-d42b-40f4-8b60-aaac7a37337a}, ! UUID
  {39138c25-0359-4819-8115-20ebde8059b9}, ! Version UUID
  1366311458,                             ! Creation Timestamp
  1366311458,                             ! Version Timestamp
  {3577c6a0-3bdb-49bd-a439-e57252ff11b0}; ! Name of Object 1

