
OS:Version,
  {60be1c07-ccdb-4c8d-a572-9f43252a7cac}, ! Handle
  0.9.3;                                  ! Version Identifier

OS:SizingPeriod:DesignDay,
  {47f25f1b-592c-4d89-bd1c-9b873bd5fd87}, ! Handle
  Lubbock International Ap Ann Clg 2% Condns WB=>MDB, ! Name
  29.7,                                   ! Maximum Dry-Bulb Temperature {C}
  13.1,                                   ! Daily Dry-Bulb Temperature Range {deltaC}
  21.6,                                   ! Humidity Indicating Conditions at Maximum Dry-Bulb {BasedOnField A3}
  89962,                                  ! Barometric Pressure {Pa}
  6.4,                                    ! Wind Speed {m/s}
  170,                                    ! Wind Direction {deg}
  0,                                      ! Sky Clearness
  0,                                      ! Rain Indicator
  0,                                      ! Snow Indicator
  21,                                     ! Day of Month
  7,                                      ! Month
  SummerDesignDay,                        ! Day Type
  0,                                      ! Daylight Saving Time Indicator
  Wetbulb,                                ! Humidity Indicating Type
  ,                                       ! Humidity Indicating Day Schedule Name
  DefaultMultipliers,                     ! Dry-Bulb Temperature Range Modifier Type
  ,                                       ! Dry-Bulb Temperature Range Modifier Schedule Name
  ASHRAETau,                              ! Solar Model Indicator
  ,                                       ! Beam Solar Day Schedule Name
  ,                                       ! Diffuse Solar Day Schedule Name
  0.396,                                  ! ASHRAE Taub {dimensionless}
  2.241;                                  ! ASHRAE Taud {dimensionless}

OS:ComponentData,
  {e9a08352-5073-4edd-816a-bbb10b2788e4}, ! Handle
  Component Data 1,                       ! Name
  {445beae6-ad1b-4f65-be5d-9d213041db5e}, ! UUID
  {97249382-b1ce-40a1-b301-179c85aad0eb}, ! Version UUID
  1366310800,                             ! Creation Timestamp
  1366310800,                             ! Version Timestamp
  {47f25f1b-592c-4d89-bd1c-9b873bd5fd87}; ! Name of Object 1

