
OS:Version,
  {f819e7c1-6f46-43f8-9ee7-d6f97920838a}, ! Handle
  0.9.3;                                  ! Version Identifier

OS:SizingPeriod:DesignDay,
  {e9c89fc2-eeda-45d1-914e-22b1bfa2008d}, ! Handle
  Elko Ann Clg .4% Condns Enth=>MDB,      ! Name
  29.6,                                   ! Maximum Dry-Bulb Temperature {C}
  21.8,                                   ! Daily Dry-Bulb Temperature Range {deltaC}
  54400,                                  ! Humidity Indicating Conditions at Maximum Dry-Bulb {BasedOnField A3}
  83884,                                  ! Barometric Pressure {Pa}
  4.1,                                    ! Wind Speed {m/s}
  240,                                    ! Wind Direction {deg}
  0,                                      ! Sky Clearness
  0,                                      ! Rain Indicator
  0,                                      ! Snow Indicator
  21,                                     ! Day of Month
  7,                                      ! Month
  SummerDesignDay,                        ! Day Type
  0,                                      ! Daylight Saving Time Indicator
  Enthalpy,                               ! Humidity Indicating Type
  ,                                       ! Humidity Indicating Day Schedule Name
  DefaultMultipliers,                     ! Dry-Bulb Temperature Range Modifier Type
  ,                                       ! Dry-Bulb Temperature Range Modifier Schedule Name
  ASHRAETau,                              ! Solar Model Indicator
  ,                                       ! Beam Solar Day Schedule Name
  ,                                       ! Diffuse Solar Day Schedule Name
  0.446,                                  ! ASHRAE Taub {dimensionless}
  1.888;                                  ! ASHRAE Taud {dimensionless}

OS:ComponentData,
  {ef61d1f5-7de3-48f3-94ca-9d3ff9d19e31}, ! Handle
  Component Data 1,                       ! Name
  {2b8754ac-6d89-441c-a21f-cd4e9067f79e}, ! UUID
  {2b7ab909-5319-43fa-9501-be6669f933ea}, ! Version UUID
  1366309463,                             ! Creation Timestamp
  1366309463,                             ! Version Timestamp
  {e9c89fc2-eeda-45d1-914e-22b1bfa2008d}; ! Name of Object 1

