
OS:Version,
  {3d5678f7-0371-4d06-a124-8de5823f9aff}, ! Handle
  0.9.3;                                  ! Version Identifier

OS:SizingPeriod:DesignDay,
  {07ff609a-1f41-4059-8143-41006504e228}, ! Handle
  Corpus Christi Nas Ann Clg 2% Condns WB=>MDB, ! Name
  30.9,                                   ! Maximum Dry-Bulb Temperature {C}
  6.7,                                    ! Daily Dry-Bulb Temperature Range {deltaC}
  27.1,                                   ! Humidity Indicating Conditions at Maximum Dry-Bulb {BasedOnField A3}
  101253,                                 ! Barometric Pressure {Pa}
  6.1,                                    ! Wind Speed {m/s}
  150,                                    ! Wind Direction {deg}
  0,                                      ! Sky Clearness
  0,                                      ! Rain Indicator
  0,                                      ! Snow Indicator
  21,                                     ! Day of Month
  8,                                      ! Month
  SummerDesignDay,                        ! Day Type
  0,                                      ! Daylight Saving Time Indicator
  Wetbulb,                                ! Humidity Indicating Type
  ,                                       ! Humidity Indicating Day Schedule Name
  DefaultMultipliers,                     ! Dry-Bulb Temperature Range Modifier Type
  ,                                       ! Dry-Bulb Temperature Range Modifier Schedule Name
  ASHRAETau,                              ! Solar Model Indicator
  ,                                       ! Beam Solar Day Schedule Name
  ,                                       ! Diffuse Solar Day Schedule Name
  0.465,                                  ! ASHRAE Taub {dimensionless}
  2.117;                                  ! ASHRAE Taud {dimensionless}

OS:ComponentData,
  {2129991b-98db-40a1-83a2-a62861763b0f}, ! Handle
  Component Data 1,                       ! Name
  {0fa08447-c4d6-4fa6-8f92-ed0eaa7b2cd9}, ! UUID
  {153faa30-1229-48c5-9479-57b5c282de9f}, ! Version UUID
  1366310635,                             ! Creation Timestamp
  1366310635,                             ! Version Timestamp
  {07ff609a-1f41-4059-8143-41006504e228}; ! Name of Object 1

