
OS:Version,
  {a090c02a-3ab7-4512-8e04-e733edd5c923}, ! Handle
  0.9.3;                                  ! Version Identifier

OS:SizingPeriod:DesignDay,
  {1e9b6534-508c-403d-8adc-dd708d27dbd2}, ! Handle
  Dyersburg Municipal Ap Ann Clg 2% Condns Enth=>MDB, ! Name
  30.3,                                   ! Maximum Dry-Bulb Temperature {C}
  9.6,                                    ! Daily Dry-Bulb Temperature Range {deltaC}
  77700,                                  ! Humidity Indicating Conditions at Maximum Dry-Bulb {BasedOnField A3}
  100094,                                 ! Barometric Pressure {Pa}
  2.9,                                    ! Wind Speed {m/s}
  220,                                    ! Wind Direction {deg}
  0,                                      ! Sky Clearness
  0,                                      ! Rain Indicator
  0,                                      ! Snow Indicator
  21,                                     ! Day of Month
  7,                                      ! Month
  SummerDesignDay,                        ! Day Type
  0,                                      ! Daylight Saving Time Indicator
  Enthalpy,                               ! Humidity Indicating Type
  ,                                       ! Humidity Indicating Day Schedule Name
  DefaultMultipliers,                     ! Dry-Bulb Temperature Range Modifier Type
  ,                                       ! Dry-Bulb Temperature Range Modifier Schedule Name
  ASHRAETau,                              ! Solar Model Indicator
  ,                                       ! Beam Solar Day Schedule Name
  ,                                       ! Diffuse Solar Day Schedule Name
  0.496,                                  ! ASHRAE Taub {dimensionless}
  1.94;                                   ! ASHRAE Taud {dimensionless}

OS:ComponentData,
  {8fe09f4d-f98f-4034-a39d-2d843f85cbf6}, ! Handle
  Component Data 1,                       ! Name
  {8efe6135-58c7-4941-8d49-a719d7780edf}, ! UUID
  {6c5d2de9-2887-4449-80d9-daf01e8308db}, ! Version UUID
  1366310502,                             ! Creation Timestamp
  1366310502,                             ! Version Timestamp
  {1e9b6534-508c-403d-8adc-dd708d27dbd2}; ! Name of Object 1

