
OS:Version,
  {c5b7ca82-ecd0-4342-8e8d-517604291581}, ! Handle
  0.9.3;                                  ! Version Identifier

OS:SizingPeriod:DesignDay,
  {93dd7775-dd95-4075-b558-c1509edb09d6}, ! Handle
  Casa Granda  Awos Ann Clg 2% Condns Enth=>MDB, ! Name
  34.6,                                   ! Maximum Dry-Bulb Temperature {C}
  14.5,                                   ! Daily Dry-Bulb Temperature Range {deltaC}
  67900,                                  ! Humidity Indicating Conditions at Maximum Dry-Bulb {BasedOnField A3}
  96081,                                  ! Barometric Pressure {Pa}
  4.2,                                    ! Wind Speed {m/s}
  270,                                    ! Wind Direction {deg}
  0,                                      ! Sky Clearness
  0,                                      ! Rain Indicator
  0,                                      ! Snow Indicator
  21,                                     ! Day of Month
  7,                                      ! Month
  SummerDesignDay,                        ! Day Type
  0,                                      ! Daylight Saving Time Indicator
  Enthalpy,                               ! Humidity Indicating Type
  ,                                       ! Humidity Indicating Day Schedule Name
  DefaultMultipliers,                     ! Dry-Bulb Temperature Range Modifier Type
  ,                                       ! Dry-Bulb Temperature Range Modifier Schedule Name
  ASHRAETau,                              ! Solar Model Indicator
  ,                                       ! Beam Solar Day Schedule Name
  ,                                       ! Diffuse Solar Day Schedule Name
  0.575,                                  ! ASHRAE Taub {dimensionless}
  1.678;                                  ! ASHRAE Taud {dimensionless}

OS:ComponentData,
  {cf50aa58-f11f-4cbb-ba90-5c38ccab892d}, ! Handle
  Component Data 1,                       ! Name
  {fda6e118-031d-42f6-bbe5-d9e6939a9426}, ! UUID
  {e222980e-d7de-4036-8dfe-e59705fac443}, ! Version UUID
  1366306262,                             ! Creation Timestamp
  1366306262,                             ! Version Timestamp
  {93dd7775-dd95-4075-b558-c1509edb09d6}; ! Name of Object 1

