
OS:Version,
  {9773fab4-53fc-44b2-93c8-40021dc567bd}, ! Handle
  0.9.3;                                  ! Version Identifier

OS:SizingPeriod:DesignDay,
  {d43a4d9b-45b1-4918-928f-d29e71d2edb2}, ! Handle
  Casa Granda  Awos Ann Clg 2% Condns Enth=>MDB, ! Name
  34.6,                                   ! Maximum Dry-Bulb Temperature {C}
  14.5,                                   ! Daily Dry-Bulb Temperature Range {deltaC}
  67900,                                  ! Humidity Indicating Conditions at Maximum Dry-Bulb {BasedOnField A3}
  96081,                                  ! Barometric Pressure {Pa}
  4.2,                                    ! Wind Speed {m/s}
  270,                                    ! Wind Direction {deg}
  0,                                      ! Sky Clearness
  0,                                      ! Rain Indicator
  0,                                      ! Snow Indicator
  21,                                     ! Day of Month
  7,                                      ! Month
  SummerDesignDay,                        ! Day Type
  0,                                      ! Daylight Saving Time Indicator
  Enthalpy,                               ! Humidity Indicating Type
  ,                                       ! Humidity Indicating Day Schedule Name
  DefaultMultipliers,                     ! Dry-Bulb Temperature Range Modifier Type
  ,                                       ! Dry-Bulb Temperature Range Modifier Schedule Name
  ASHRAETau,                              ! Solar Model Indicator
  ,                                       ! Beam Solar Day Schedule Name
  ,                                       ! Diffuse Solar Day Schedule Name
  0.575,                                  ! ASHRAE Taub {dimensionless}
  1.678;                                  ! ASHRAE Taud {dimensionless}

