
OS:Version,
  {13c2f77e-0311-46ea-9fd2-053b8ee8899e}, ! Handle
  0.9.3;                                  ! Version Identifier

OS:SizingPeriod:DesignDay,
  {6f9a8d3a-601d-4736-a382-768dabf76155}, ! Handle
  Beatrice Municipal Ann Clg 2% Condns DB=>MWB, ! Name
  32.6,                                   ! Maximum Dry-Bulb Temperature {C}
  11.3,                                   ! Daily Dry-Bulb Temperature Range {deltaC}
  22.8,                                   ! Humidity Indicating Conditions at Maximum Dry-Bulb {BasedOnField A3}
  96576,                                  ! Barometric Pressure {Pa}
  5.9,                                    ! Wind Speed {m/s}
  190,                                    ! Wind Direction {deg}
  0,                                      ! Sky Clearness
  0,                                      ! Rain Indicator
  0,                                      ! Snow Indicator
  21,                                     ! Day of Month
  7,                                      ! Month
  SummerDesignDay,                        ! Day Type
  0,                                      ! Daylight Saving Time Indicator
  Wetbulb,                                ! Humidity Indicating Type
  ,                                       ! Humidity Indicating Day Schedule Name
  DefaultMultipliers,                     ! Dry-Bulb Temperature Range Modifier Type
  ,                                       ! Dry-Bulb Temperature Range Modifier Schedule Name
  ASHRAETau,                              ! Solar Model Indicator
  ,                                       ! Beam Solar Day Schedule Name
  ,                                       ! Diffuse Solar Day Schedule Name
  0.411,                                  ! ASHRAE Taub {dimensionless}
  2.232;                                  ! ASHRAE Taud {dimensionless}

OS:ComponentData,
  {2ede7de9-c1c0-4e21-89cf-13df914f297a}, ! Handle
  Component Data 1,                       ! Name
  {1eb1737d-d289-47b1-aef7-b591bbe44d3e}, ! UUID
  {36d3f0a5-0fda-4427-8894-621a25c74ec5}, ! Version UUID
  1366309086,                             ! Creation Timestamp
  1366309086,                             ! Version Timestamp
  {6f9a8d3a-601d-4736-a382-768dabf76155}; ! Name of Object 1

