
OS:Version,
  {31082af0-cfe3-43b5-ba6a-535541e35d1a}, ! Handle
  0.9.3;                                  ! Version Identifier

OS:SizingPeriod:DesignDay,
  {9e7ee12c-2d70-48c2-a9d9-b01374f22b04}, ! Handle
  Colorado Springs Muni Ap Ann Clg 2% Condns DB=>MWB, ! Name
  29.4,                                   ! Maximum Dry-Bulb Temperature {C}
  14.5,                                   ! Daily Dry-Bulb Temperature Range {deltaC}
  14.6,                                   ! Humidity Indicating Conditions at Maximum Dry-Bulb {BasedOnField A3}
  80767,                                  ! Barometric Pressure {Pa}
  5.4,                                    ! Wind Speed {m/s}
  170,                                    ! Wind Direction {deg}
  0,                                      ! Sky Clearness
  0,                                      ! Rain Indicator
  0,                                      ! Snow Indicator
  21,                                     ! Day of Month
  7,                                      ! Month
  SummerDesignDay,                        ! Day Type
  0,                                      ! Daylight Saving Time Indicator
  Wetbulb,                                ! Humidity Indicating Type
  ,                                       ! Humidity Indicating Day Schedule Name
  DefaultMultipliers,                     ! Dry-Bulb Temperature Range Modifier Type
  ,                                       ! Dry-Bulb Temperature Range Modifier Schedule Name
  ASHRAETau,                              ! Solar Model Indicator
  ,                                       ! Beam Solar Day Schedule Name
  ,                                       ! Diffuse Solar Day Schedule Name
  0.408,                                  ! ASHRAE Taub {dimensionless}
  2.047;                                  ! ASHRAE Taud {dimensionless}

OS:ComponentData,
  {f2e3075e-7023-44b7-bc06-b35bcf734fc3}, ! Handle
  Component Data 1,                       ! Name
  {4d140496-0aea-4dc7-9f52-f9c55dcfca34}, ! UUID
  {461f46f6-3d70-4f26-b708-81e1143f319c}, ! Version UUID
  1366306663,                             ! Creation Timestamp
  1366306663,                             ! Version Timestamp
  {9e7ee12c-2d70-48c2-a9d9-b01374f22b04}; ! Name of Object 1

