
OS:Version,
  {21a5e125-eac4-467a-ad7d-1443fbcf21e2}, ! Handle
  0.9.3;                                  ! Version Identifier

OS:SizingPeriod:DesignDay,
  {eadeffc5-674e-44c0-9f5f-445f379dfc1b}, ! Handle
  Liberal Muni Ann Clg 2% Condns WB=>MDB, ! Name
  30.5,                                   ! Maximum Dry-Bulb Temperature {C}
  14.7,                                   ! Daily Dry-Bulb Temperature Range {deltaC}
  22.2,                                   ! Humidity Indicating Conditions at Maximum Dry-Bulb {BasedOnField A3}
  90959,                                  ! Barometric Pressure {Pa}
  7.3,                                    ! Wind Speed {m/s}
  190,                                    ! Wind Direction {deg}
  0,                                      ! Sky Clearness
  0,                                      ! Rain Indicator
  0,                                      ! Snow Indicator
  21,                                     ! Day of Month
  7,                                      ! Month
  SummerDesignDay,                        ! Day Type
  0,                                      ! Daylight Saving Time Indicator
  Wetbulb,                                ! Humidity Indicating Type
  ,                                       ! Humidity Indicating Day Schedule Name
  DefaultMultipliers,                     ! Dry-Bulb Temperature Range Modifier Type
  ,                                       ! Dry-Bulb Temperature Range Modifier Schedule Name
  ASHRAETau,                              ! Solar Model Indicator
  ,                                       ! Beam Solar Day Schedule Name
  ,                                       ! Diffuse Solar Day Schedule Name
  0.42,                                   ! ASHRAE Taub {dimensionless}
  2.114;                                  ! ASHRAE Taud {dimensionless}

OS:ComponentData,
  {2d5951b8-e90e-4db9-ad00-b0fb01f3b58a}, ! Handle
  Component Data 1,                       ! Name
  {527829a9-7591-49d7-9c56-66a57ceb0508}, ! UUID
  {4ba1ea8d-4851-4cf1-a475-e05b4b4e38f3}, ! Version UUID
  1366307555,                             ! Creation Timestamp
  1366307555,                             ! Version Timestamp
  {eadeffc5-674e-44c0-9f5f-445f379dfc1b}; ! Name of Object 1

