
OS:Version,
  {0b1fd0e0-f369-4886-a630-525b8cc6bd2c}, ! Handle
  0.9.3;                                  ! Version Identifier

OS:SizingPeriod:DesignDay,
  {33ffddf5-f96b-4f59-b13a-a71e54059e46}, ! Handle
  CHARLESTON Ann Clg 2% Condns Enth=>MDB, ! Name
  30.3,                                   ! Maximum Dry-Bulb Temperature {C}
  9,                                      ! Daily Dry-Bulb Temperature Range {deltaC}
  80200,                                  ! Humidity Indicating Conditions at Maximum Dry-Bulb {BasedOnField A3}
  101181,                                 ! Barometric Pressure {Pa}
  4.4,                                    ! Wind Speed {m/s}
  230,                                    ! Wind Direction {deg}
  0,                                      ! Sky Clearness
  0,                                      ! Rain Indicator
  0,                                      ! Snow Indicator
  21,                                     ! Day of Month
  7,                                      ! Month
  SummerDesignDay,                        ! Day Type
  0,                                      ! Daylight Saving Time Indicator
  Enthalpy,                               ! Humidity Indicating Type
  ,                                       ! Humidity Indicating Day Schedule Name
  DefaultMultipliers,                     ! Dry-Bulb Temperature Range Modifier Type
  ,                                       ! Dry-Bulb Temperature Range Modifier Schedule Name
  ASHRAETau,                              ! Solar Model Indicator
  ,                                       ! Beam Solar Day Schedule Name
  ,                                       ! Diffuse Solar Day Schedule Name
  0.559,                                  ! ASHRAE Taub {dimensionless}
  1.811;                                  ! ASHRAE Taud {dimensionless}

OS:ComponentData,
  {368c6821-12cf-4f53-8383-fda808b5f08f}, ! Handle
  Component Data 1,                       ! Name
  {2431ae77-4778-424d-8a09-2e15da1d7b84}, ! UUID
  {0a00d1b5-b175-4b50-95c1-92744fa64aca}, ! Version UUID
  1366310324,                             ! Creation Timestamp
  1366310324,                             ! Version Timestamp
  {33ffddf5-f96b-4f59-b13a-a71e54059e46}; ! Name of Object 1

