
OS:Version,
  {ada425ae-bb64-484e-90d4-69ad17dc2ea0}, ! Handle
  0.9.3;                                  ! Version Identifier

OS:SizingPeriod:DesignDay,
  {b1bc2c0d-377b-4374-99c4-1ff62e57e5ee}, ! Handle
  Block Island State Arpt Ann Htg Wind 99.6% Condns WS=>MCDB, ! Name
  2.6,                                    ! Maximum Dry-Bulb Temperature {C}
  0,                                      ! Daily Dry-Bulb Temperature Range {deltaC}
  2.6,                                    ! Humidity Indicating Conditions at Maximum Dry-Bulb {BasedOnField A3}
  100917,                                 ! Barometric Pressure {Pa}
  14.2,                                   ! Wind Speed {m/s}
  310,                                    ! Wind Direction {deg}
  0,                                      ! Sky Clearness
  0,                                      ! Rain Indicator
  0,                                      ! Snow Indicator
  21,                                     ! Day of Month
  1,                                      ! Month
  WinterDesignDay,                        ! Day Type
  0,                                      ! Daylight Saving Time Indicator
  Wetbulb,                                ! Humidity Indicating Type
  ,                                       ! Humidity Indicating Day Schedule Name
  DefaultMultipliers,                     ! Dry-Bulb Temperature Range Modifier Type
  ,                                       ! Dry-Bulb Temperature Range Modifier Schedule Name
  ASHRAEClearSky;                         ! Solar Model Indicator

OS:ComponentData,
  {fdd0f2f3-be7a-4d2b-bd95-ded1b627e70d}, ! Handle
  Component Data 1,                       ! Name
  {c35a1c31-b447-4485-81ea-eb0c3cdddda4}, ! UUID
  {fd06ab83-96d9-467e-9459-6304bb7f1c39}, ! Version UUID
  1366310288,                             ! Creation Timestamp
  1366310288,                             ! Version Timestamp
  {b1bc2c0d-377b-4374-99c4-1ff62e57e5ee}; ! Name of Object 1

