
OS:Version,
  {ea62ee52-52c0-41fc-ae3d-15d4ca0af9ea}, ! Handle
  0.9.3;                                  ! Version Identifier

OS:SizingPeriod:DesignDay,
  {2a47e5d7-8560-4eb1-a774-d9f31dcbd6f6}, ! Handle
  Hastings Municipal Ann Clg 1% Condns WB=>MDB, ! Name
  30.8,                                   ! Maximum Dry-Bulb Temperature {C}
  11.9,                                   ! Daily Dry-Bulb Temperature Range {deltaC}
  24.3,                                   ! Humidity Indicating Conditions at Maximum Dry-Bulb {BasedOnField A3}
  94367,                                  ! Barometric Pressure {Pa}
  5.2,                                    ! Wind Speed {m/s}
  170,                                    ! Wind Direction {deg}
  0,                                      ! Sky Clearness
  0,                                      ! Rain Indicator
  0,                                      ! Snow Indicator
  21,                                     ! Day of Month
  7,                                      ! Month
  SummerDesignDay,                        ! Day Type
  0,                                      ! Daylight Saving Time Indicator
  Wetbulb,                                ! Humidity Indicating Type
  ,                                       ! Humidity Indicating Day Schedule Name
  DefaultMultipliers,                     ! Dry-Bulb Temperature Range Modifier Type
  ,                                       ! Dry-Bulb Temperature Range Modifier Schedule Name
  ASHRAETau,                              ! Solar Model Indicator
  ,                                       ! Beam Solar Day Schedule Name
  ,                                       ! Diffuse Solar Day Schedule Name
  0.404,                                  ! ASHRAE Taub {dimensionless}
  2.233;                                  ! ASHRAE Taud {dimensionless}

OS:ComponentData,
  {1ee92536-ed31-4a4c-a13c-9be0719477a3}, ! Handle
  Component Data 1,                       ! Name
  {15fc085c-2da8-4c56-b3a1-5241f1bc7ad2}, ! UUID
  {4cf361cc-9a0c-4be6-87f0-6e61c174f204}, ! Version UUID
  1366309126,                             ! Creation Timestamp
  1366309126,                             ! Version Timestamp
  {2a47e5d7-8560-4eb1-a774-d9f31dcbd6f6}; ! Name of Object 1

