
OS:Version,
  {9c378def-1264-491b-8101-a4516f7882d6}, ! Handle
  0.9.3;                                  ! Version Identifier

OS:SizingPeriod:DesignDay,
  {9b528aa7-1e84-4fa1-9423-8688a8a08d9e}, ! Handle
  Liberal Muni Ann Clg 2% Condns DB=>MWB, ! Name
  34.9,                                   ! Maximum Dry-Bulb Temperature {C}
  14.7,                                   ! Daily Dry-Bulb Temperature Range {deltaC}
  20.3,                                   ! Humidity Indicating Conditions at Maximum Dry-Bulb {BasedOnField A3}
  90959,                                  ! Barometric Pressure {Pa}
  7.3,                                    ! Wind Speed {m/s}
  190,                                    ! Wind Direction {deg}
  0,                                      ! Sky Clearness
  0,                                      ! Rain Indicator
  0,                                      ! Snow Indicator
  21,                                     ! Day of Month
  7,                                      ! Month
  SummerDesignDay,                        ! Day Type
  0,                                      ! Daylight Saving Time Indicator
  Wetbulb,                                ! Humidity Indicating Type
  ,                                       ! Humidity Indicating Day Schedule Name
  DefaultMultipliers,                     ! Dry-Bulb Temperature Range Modifier Type
  ,                                       ! Dry-Bulb Temperature Range Modifier Schedule Name
  ASHRAETau,                              ! Solar Model Indicator
  ,                                       ! Beam Solar Day Schedule Name
  ,                                       ! Diffuse Solar Day Schedule Name
  0.42,                                   ! ASHRAE Taub {dimensionless}
  2.114;                                  ! ASHRAE Taud {dimensionless}

OS:ComponentData,
  {20c47878-a98d-4e5d-9125-31852694a901}, ! Handle
  Component Data 1,                       ! Name
  {d2f0c5ae-ebf2-4c73-ac16-c7745ed5fd89}, ! UUID
  {6270a58e-2a69-4859-aaab-ecd5a82abc89}, ! Version UUID
  1366307555,                             ! Creation Timestamp
  1366307555,                             ! Version Timestamp
  {9b528aa7-1e84-4fa1-9423-8688a8a08d9e}; ! Name of Object 1

