
OS:Version,
  {36bc8e02-eafa-4416-adef-330099d8157e}, ! Handle
  0.9.3;                                  ! Version Identifier

OS:SizingPeriod:DesignDay,
  {a22df161-8b1f-4701-b143-9d6f61c474b4}, ! Handle
  CHARLOTTE Ann Clg 1% Condns WB=>MDB,    ! Name
  30.4,                                   ! Maximum Dry-Bulb Temperature {C}
  10.1,                                   ! Daily Dry-Bulb Temperature Range {deltaC}
  24.5,                                   ! Humidity Indicating Conditions at Maximum Dry-Bulb {BasedOnField A3}
  98545,                                  ! Barometric Pressure {Pa}
  3.3,                                    ! Wind Speed {m/s}
  240,                                    ! Wind Direction {deg}
  0,                                      ! Sky Clearness
  0,                                      ! Rain Indicator
  0,                                      ! Snow Indicator
  21,                                     ! Day of Month
  7,                                      ! Month
  SummerDesignDay,                        ! Day Type
  0,                                      ! Daylight Saving Time Indicator
  Wetbulb,                                ! Humidity Indicating Type
  ,                                       ! Humidity Indicating Day Schedule Name
  DefaultMultipliers,                     ! Dry-Bulb Temperature Range Modifier Type
  ,                                       ! Dry-Bulb Temperature Range Modifier Schedule Name
  ASHRAETau,                              ! Solar Model Indicator
  ,                                       ! Beam Solar Day Schedule Name
  ,                                       ! Diffuse Solar Day Schedule Name
  0.557,                                  ! ASHRAE Taub {dimensionless}
  1.762;                                  ! ASHRAE Taud {dimensionless}

OS:ComponentData,
  {5b2e0e72-3490-4651-804f-2c5df412fed2}, ! Handle
  Component Data 1,                       ! Name
  {1edbe889-44c5-4bdc-ba06-18ad3701f7fa}, ! UUID
  {501fa347-dbf3-4774-99df-6cda0d2528b0}, ! Version UUID
  1366308893,                             ! Creation Timestamp
  1366308893,                             ! Version Timestamp
  {a22df161-8b1f-4701-b143-9d6f61c474b4}; ! Name of Object 1

