
OS:Version,
  {3ec14c1f-99f9-4db5-aa25-4d7f8b613c13}, ! Handle
  0.9.3;                                  ! Version Identifier

OS:SizingPeriod:DesignDay,
  {15aaa677-980e-43b8-937c-a761071127f3}, ! Handle
  Anchorage Merrill Field Ann Clg .4% Condns DP=>MDB, ! Name
  17.2,                                   ! Maximum Dry-Bulb Temperature {C}
  6.8,                                    ! Daily Dry-Bulb Temperature Range {deltaC}
  14,                                     ! Humidity Indicating Conditions at Maximum Dry-Bulb {BasedOnField A3}
  100821,                                 ! Barometric Pressure {Pa}
  2.8,                                    ! Wind Speed {m/s}
  270,                                    ! Wind Direction {deg}
  0,                                      ! Sky Clearness
  0,                                      ! Rain Indicator
  0,                                      ! Snow Indicator
  21,                                     ! Day of Month
  7,                                      ! Month
  SummerDesignDay,                        ! Day Type
  0,                                      ! Daylight Saving Time Indicator
  Dewpoint,                               ! Humidity Indicating Type
  ,                                       ! Humidity Indicating Day Schedule Name
  DefaultMultipliers,                     ! Dry-Bulb Temperature Range Modifier Type
  ,                                       ! Dry-Bulb Temperature Range Modifier Schedule Name
  ASHRAETau,                              ! Solar Model Indicator
  ,                                       ! Beam Solar Day Schedule Name
  ,                                       ! Diffuse Solar Day Schedule Name
  0.39,                                   ! ASHRAE Taub {dimensionless}
  2.155;                                  ! ASHRAE Taud {dimensionless}

OS:ComponentData,
  {bf5c34ae-2596-430a-8185-2359857853bd}, ! Handle
  Component Data 1,                       ! Name
  {397e8164-f705-47e9-827f-d1630fc3f3a2}, ! UUID
  {560b6a16-4d7b-4d0e-9068-d42ea12f5514}, ! Version UUID
  1366304701,                             ! Creation Timestamp
  1366304701,                             ! Version Timestamp
  {15aaa677-980e-43b8-937c-a761071127f3}; ! Name of Object 1

