
OS:Version,
  {618eeca6-3d7f-4d77-8331-d311b7bdaa47}, ! Handle
  0.9.3;                                  ! Version Identifier

OS:SizingPeriod:DesignDay,
  {52d2b10e-c019-4660-b9d1-fc47570bd542}, ! Handle
  DETROIT Ann Clg .4% Condns DP=>MDB,     ! Name
  28,                                     ! Maximum Dry-Bulb Temperature {C}
  10.4,                                   ! Daily Dry-Bulb Temperature Range {deltaC}
  23.2,                                   ! Humidity Indicating Conditions at Maximum Dry-Bulb {BasedOnField A3}
  99051,                                  ! Barometric Pressure {Pa}
  5.9,                                    ! Wind Speed {m/s}
  240,                                    ! Wind Direction {deg}
  0,                                      ! Sky Clearness
  0,                                      ! Rain Indicator
  0,                                      ! Snow Indicator
  21,                                     ! Day of Month
  7,                                      ! Month
  SummerDesignDay,                        ! Day Type
  0,                                      ! Daylight Saving Time Indicator
  Dewpoint,                               ! Humidity Indicating Type
  ,                                       ! Humidity Indicating Day Schedule Name
  DefaultMultipliers,                     ! Dry-Bulb Temperature Range Modifier Type
  ,                                       ! Dry-Bulb Temperature Range Modifier Schedule Name
  ASHRAETau,                              ! Solar Model Indicator
  ,                                       ! Beam Solar Day Schedule Name
  ,                                       ! Diffuse Solar Day Schedule Name
  0.47,                                   ! ASHRAE Taub {dimensionless}
  1.978;                                  ! ASHRAE Taud {dimensionless}

OS:ComponentData,
  {0023d3f9-0ebf-4dc5-a9cd-cde3a06552ec}, ! Handle
  Component Data 1,                       ! Name
  {2709f53e-e0bd-42f6-bb9d-c3d5cf1e3beb}, ! UUID
  {5498f250-4779-493f-8afb-6e4b8545f5b2}, ! Version UUID
  1366307981,                             ! Creation Timestamp
  1366307981,                             ! Version Timestamp
  {52d2b10e-c019-4660-b9d1-fc47570bd542}; ! Name of Object 1

