
OS:Version,
  {4c40d4c6-2f59-4e9b-bb4b-c30ace0799bd}, ! Handle
  0.9.3;                                  ! Version Identifier

OS:SizingPeriod:DesignDay,
  {e03904a7-b58d-4ec2-84e0-ed77d1941ec3}, ! Handle
  Ely Muni Ann Htg Wind 99.6% Condns WS=>MCDB, ! Name
  -10.1,                                  ! Maximum Dry-Bulb Temperature {C}
  0,                                      ! Daily Dry-Bulb Temperature Range {deltaC}
  -10.1,                                  ! Humidity Indicating Conditions at Maximum Dry-Bulb {BasedOnField A3}
  95977,                                  ! Barometric Pressure {Pa}
  8.2,                                    ! Wind Speed {m/s}
  290,                                    ! Wind Direction {deg}
  0,                                      ! Sky Clearness
  0,                                      ! Rain Indicator
  0,                                      ! Snow Indicator
  21,                                     ! Day of Month
  1,                                      ! Month
  WinterDesignDay,                        ! Day Type
  0,                                      ! Daylight Saving Time Indicator
  Wetbulb,                                ! Humidity Indicating Type
  ,                                       ! Humidity Indicating Day Schedule Name
  DefaultMultipliers,                     ! Dry-Bulb Temperature Range Modifier Type
  ,                                       ! Dry-Bulb Temperature Range Modifier Schedule Name
  ASHRAEClearSky;                         ! Solar Model Indicator

OS:ComponentData,
  {e884cc47-9634-494f-bf74-1b9e60743a1e}, ! Handle
  Component Data 1,                       ! Name
  {a8979744-bc13-4dc8-82a2-b85930c88d62}, ! UUID
  {45a79854-73b1-4086-8f99-c642628ae35e}, ! Version UUID
  1366308214,                             ! Creation Timestamp
  1366308214,                             ! Version Timestamp
  {e03904a7-b58d-4ec2-84e0-ed77d1941ec3}; ! Name of Object 1

