
OS:Version,
  {2115505d-7074-4aaf-b8d3-1b08c75cb1ab}, ! Handle
  0.9.3;                                  ! Version Identifier

OS:SizingPeriod:DesignDay,
  {2f2e68ea-c739-49fe-aaac-7ff6315357ef}, ! Handle
  BRADFORD Ann Clg 1% Condns DP=>MDB,     ! Name
  23,                                     ! Maximum Dry-Bulb Temperature {C}
  11.9,                                   ! Daily Dry-Bulb Temperature Range {deltaC}
  19.9,                                   ! Humidity Indicating Conditions at Maximum Dry-Bulb {BasedOnField A3}
  94322,                                  ! Barometric Pressure {Pa}
  4.1,                                    ! Wind Speed {m/s}
  270,                                    ! Wind Direction {deg}
  0,                                      ! Sky Clearness
  0,                                      ! Rain Indicator
  0,                                      ! Snow Indicator
  21,                                     ! Day of Month
  7,                                      ! Month
  SummerDesignDay,                        ! Day Type
  0,                                      ! Daylight Saving Time Indicator
  Dewpoint,                               ! Humidity Indicating Type
  ,                                       ! Humidity Indicating Day Schedule Name
  DefaultMultipliers,                     ! Dry-Bulb Temperature Range Modifier Type
  ,                                       ! Dry-Bulb Temperature Range Modifier Schedule Name
  ASHRAETau,                              ! Solar Model Indicator
  ,                                       ! Beam Solar Day Schedule Name
  ,                                       ! Diffuse Solar Day Schedule Name
  0.423,                                  ! ASHRAE Taub {dimensionless}
  2.114;                                  ! ASHRAE Taud {dimensionless}

OS:ComponentData,
  {f6da20c2-398a-4c27-87cc-7834cdf7d5a7}, ! Handle
  Component Data 1,                       ! Name
  {9293f665-e384-43cb-b2b4-40e3ae8060b3}, ! UUID
  {5f5e693b-d94f-4fd8-bc98-cc497e6bd544}, ! Version UUID
  1366310146,                             ! Creation Timestamp
  1366310146,                             ! Version Timestamp
  {2f2e68ea-c739-49fe-aaac-7ff6315357ef}; ! Name of Object 1

