
OS:Version,
  {b44df216-484d-46a8-b096-52e29435cb98}, ! Handle
  0.9.3;                                  ! Version Identifier

OS:SizingPeriod:DesignDay,
  {65c957d2-c546-48c8-86f7-8654ab59eb71}, ! Handle
  Cheyenne/Warren AFB Ann Htg Wind 99.6% Condns WS=>MCDB, ! Name
  1.4,                                    ! Maximum Dry-Bulb Temperature {C}
  0,                                      ! Daily Dry-Bulb Temperature Range {deltaC}
  1.4,                                    ! Humidity Indicating Conditions at Maximum Dry-Bulb {BasedOnField A3}
  80767,                                  ! Barometric Pressure {Pa}
  18.1,                                   ! Wind Speed {m/s}
  0,                                      ! Wind Direction {deg}
  0,                                      ! Sky Clearness
  0,                                      ! Rain Indicator
  0,                                      ! Snow Indicator
  21,                                     ! Day of Month
  12,                                     ! Month
  WinterDesignDay,                        ! Day Type
  0,                                      ! Daylight Saving Time Indicator
  Wetbulb,                                ! Humidity Indicating Type
  ,                                       ! Humidity Indicating Day Schedule Name
  DefaultMultipliers,                     ! Dry-Bulb Temperature Range Modifier Type
  ,                                       ! Dry-Bulb Temperature Range Modifier Schedule Name
  ASHRAEClearSky;                         ! Solar Model Indicator

OS:ComponentData,
  {fd5df8a6-0d60-4928-9a32-df0323cf451b}, ! Handle
  Component Data 1,                       ! Name
  {aadf03f5-f32e-4a43-a3ce-64cc0b0b1301}, ! UUID
  {1649e212-7ec0-4a26-bffb-a51a9842f80f}, ! Version UUID
  1366311705,                             ! Creation Timestamp
  1366311705,                             ! Version Timestamp
  {65c957d2-c546-48c8-86f7-8654ab59eb71}; ! Name of Object 1

