
OS:Version,
  {5f21d45a-4d61-4b0d-8758-7fa6b56700d4}, ! Handle
  0.9.3;                                  ! Version Identifier

OS:SizingPeriod:DesignDay,
  {4b866d0a-7106-4773-a59d-2fae6e544268}, ! Handle
  Arcata Airport Ann Clg 1% Condns Enth=>MDB, ! Name
  18.5,                                   ! Maximum Dry-Bulb Temperature {C}
  6.5,                                    ! Daily Dry-Bulb Temperature Range {deltaC}
  45000,                                  ! Humidity Indicating Conditions at Maximum Dry-Bulb {BasedOnField A3}
  100582,                                 ! Barometric Pressure {Pa}
  4.3,                                    ! Wind Speed {m/s}
  320,                                    ! Wind Direction {deg}
  0,                                      ! Sky Clearness
  0,                                      ! Rain Indicator
  0,                                      ! Snow Indicator
  21,                                     ! Day of Month
  8,                                      ! Month
  SummerDesignDay,                        ! Day Type
  0,                                      ! Daylight Saving Time Indicator
  Enthalpy,                               ! Humidity Indicating Type
  ,                                       ! Humidity Indicating Day Schedule Name
  DefaultMultipliers,                     ! Dry-Bulb Temperature Range Modifier Type
  ,                                       ! Dry-Bulb Temperature Range Modifier Schedule Name
  ASHRAETau,                              ! Solar Model Indicator
  ,                                       ! Beam Solar Day Schedule Name
  ,                                       ! Diffuse Solar Day Schedule Name
  0.365,                                  ! ASHRAE Taub {dimensionless}
  2.513;                                  ! ASHRAE Taud {dimensionless}

OS:ComponentData,
  {ba04936f-f1ca-4a5f-87f8-ca994ec26814}, ! Handle
  Component Data 1,                       ! Name
  {91dbbb6f-4ed1-4fb0-af94-a6e2a572b0b4}, ! UUID
  {69ab15c9-d2bd-4a69-9460-fce9877329ee}, ! Version UUID
  1366306356,                             ! Creation Timestamp
  1366306356,                             ! Version Timestamp
  {4b866d0a-7106-4773-a59d-2fae6e544268}; ! Name of Object 1

