
OS:Version,
  {2511cdfa-2b41-42a3-b40d-11bbd1fe72fc}, ! Handle
  0.9.3;                                  ! Version Identifier

OS:SizingPeriod:DesignDay,
  {016e081c-9037-4170-a371-449d135d7668}, ! Handle
  Boise Ann Htg Wind 99% Condns WS=>MCDB, ! Name
  5.2,                                    ! Maximum Dry-Bulb Temperature {C}
  0,                                      ! Daily Dry-Bulb Temperature Range {deltaC}
  5.2,                                    ! Humidity Indicating Conditions at Maximum Dry-Bulb {BasedOnField A3}
  91257,                                  ! Barometric Pressure {Pa}
  9.9,                                    ! Wind Speed {m/s}
  120,                                    ! Wind Direction {deg}
  0,                                      ! Sky Clearness
  0,                                      ! Rain Indicator
  0,                                      ! Snow Indicator
  21,                                     ! Day of Month
  12,                                     ! Month
  WinterDesignDay,                        ! Day Type
  0,                                      ! Daylight Saving Time Indicator
  Wetbulb,                                ! Humidity Indicating Type
  ,                                       ! Humidity Indicating Day Schedule Name
  DefaultMultipliers,                     ! Dry-Bulb Temperature Range Modifier Type
  ,                                       ! Dry-Bulb Temperature Range Modifier Schedule Name
  ASHRAEClearSky;                         ! Solar Model Indicator

OS:ComponentData,
  {5ea19a1f-4cb7-461e-aa6b-a292369d4578}, ! Handle
  Component Data 1,                       ! Name
  {6921218b-892e-40a8-ae31-92c98d81b2b5}, ! UUID
  {d8c4681b-f06a-4636-a7d0-ce7c8b089281}, ! Version UUID
  1366307264,                             ! Creation Timestamp
  1366307264,                             ! Version Timestamp
  {016e081c-9037-4170-a371-449d135d7668}; ! Name of Object 1

