
OS:Version,
  {8106b802-b426-476a-ac4f-ee31acb22b4b}, ! Handle
  0.9.3;                                  ! Version Identifier

OS:SizingPeriod:DesignDay,
  {8ae60b64-d258-4e40-897a-8ab8008c9146}, ! Handle
  ARCATA Ann Clg 2% Condns WB=>MDB,       ! Name
  17.6,                                   ! Maximum Dry-Bulb Temperature {C}
  6.5,                                    ! Daily Dry-Bulb Temperature Range {deltaC}
  15.5,                                   ! Humidity Indicating Conditions at Maximum Dry-Bulb {BasedOnField A3}
  100499,                                 ! Barometric Pressure {Pa}
  4.3,                                    ! Wind Speed {m/s}
  320,                                    ! Wind Direction {deg}
  0,                                      ! Sky Clearness
  0,                                      ! Rain Indicator
  0,                                      ! Snow Indicator
  21,                                     ! Day of Month
  8,                                      ! Month
  SummerDesignDay,                        ! Day Type
  0,                                      ! Daylight Saving Time Indicator
  Wetbulb,                                ! Humidity Indicating Type
  ,                                       ! Humidity Indicating Day Schedule Name
  DefaultMultipliers,                     ! Dry-Bulb Temperature Range Modifier Type
  ,                                       ! Dry-Bulb Temperature Range Modifier Schedule Name
  ASHRAETau,                              ! Solar Model Indicator
  ,                                       ! Beam Solar Day Schedule Name
  ,                                       ! Diffuse Solar Day Schedule Name
  0.365,                                  ! ASHRAE Taub {dimensionless}
  2.513;                                  ! ASHRAE Taud {dimensionless}

OS:ComponentData,
  {0a41c455-acac-4587-addb-6e3ce9c7f8bd}, ! Handle
  Component Data 1,                       ! Name
  {3559b266-7f0c-4df2-b43a-98c04eb84ab0}, ! UUID
  {1187c5ae-e644-443b-a7f3-ae888bd0592a}, ! Version UUID
  1366306346,                             ! Creation Timestamp
  1366306346,                             ! Version Timestamp
  {8ae60b64-d258-4e40-897a-8ab8008c9146}; ! Name of Object 1

