
OS:Version,
  {ecafde8a-b0b2-4a49-a38b-2c4dbd806b85}, ! Handle
  0.9.3;                                  ! Version Identifier

OS:SizingPeriod:DesignDay,
  {6d3f35a1-5c16-451d-a980-f2b6a5dada67}, ! Handle
  Lewistown Municipal Arpt Ann Clg 2% Condns Enth=>MDB, ! Name
  26,                                     ! Maximum Dry-Bulb Temperature {C}
  15.7,                                   ! Daily Dry-Bulb Temperature Range {deltaC}
  49000,                                  ! Humidity Indicating Conditions at Maximum Dry-Bulb {BasedOnField A3}
  87044,                                  ! Barometric Pressure {Pa}
  4.3,                                    ! Wind Speed {m/s}
  0,                                      ! Wind Direction {deg}
  0,                                      ! Sky Clearness
  0,                                      ! Rain Indicator
  0,                                      ! Snow Indicator
  21,                                     ! Day of Month
  7,                                      ! Month
  SummerDesignDay,                        ! Day Type
  0,                                      ! Daylight Saving Time Indicator
  Enthalpy,                               ! Humidity Indicating Type
  ,                                       ! Humidity Indicating Day Schedule Name
  DefaultMultipliers,                     ! Dry-Bulb Temperature Range Modifier Type
  ,                                       ! Dry-Bulb Temperature Range Modifier Schedule Name
  ASHRAETau,                              ! Solar Model Indicator
  ,                                       ! Beam Solar Day Schedule Name
  ,                                       ! Diffuse Solar Day Schedule Name
  0.382,                                  ! ASHRAE Taub {dimensionless}
  2.178;                                  ! ASHRAE Taud {dimensionless}

OS:ComponentData,
  {ce4c642a-1d30-4170-a5ef-b934815c34bf}, ! Handle
  Component Data 1,                       ! Name
  {d9037c2d-d08d-4b29-93ec-f59a17fdfc2f}, ! UUID
  {c18e0739-a8f6-41d2-ac42-b33791d39d07}, ! Version UUID
  1366308822,                             ! Creation Timestamp
  1366308822,                             ! Version Timestamp
  {6d3f35a1-5c16-451d-a980-f2b6a5dada67}; ! Name of Object 1

