
OS:Version,
  {1dbd8a67-3da9-4b0a-afa5-89d460d76edb}, ! Handle
  0.9.3;                                  ! Version Identifier

OS:SizingPeriod:DesignDay,
  {0e5db11c-5eb4-481e-86b2-38f2fd643db8}, ! Handle
  Cordova Ann Clg 1% Condns DP=>MDB,      ! Name
  16.1,                                   ! Maximum Dry-Bulb Temperature {C}
  7.2,                                    ! Daily Dry-Bulb Temperature Range {deltaC}
  13,                                     ! Humidity Indicating Conditions at Maximum Dry-Bulb {BasedOnField A3}
  101181,                                 ! Barometric Pressure {Pa}
  3,                                      ! Wind Speed {m/s}
  240,                                    ! Wind Direction {deg}
  0,                                      ! Sky Clearness
  0,                                      ! Rain Indicator
  0,                                      ! Snow Indicator
  21,                                     ! Day of Month
  7,                                      ! Month
  SummerDesignDay,                        ! Day Type
  0,                                      ! Daylight Saving Time Indicator
  Dewpoint,                               ! Humidity Indicating Type
  ,                                       ! Humidity Indicating Day Schedule Name
  DefaultMultipliers,                     ! Dry-Bulb Temperature Range Modifier Type
  ,                                       ! Dry-Bulb Temperature Range Modifier Schedule Name
  ASHRAETau,                              ! Solar Model Indicator
  ,                                       ! Beam Solar Day Schedule Name
  ,                                       ! Diffuse Solar Day Schedule Name
  0.388,                                  ! ASHRAE Taub {dimensionless}
  2.132;                                  ! ASHRAE Taud {dimensionless}

OS:ComponentData,
  {4334efe9-6a13-4fc2-8039-58223a79136c}, ! Handle
  Component Data 1,                       ! Name
  {8fac966c-2bb9-4cde-8c54-cde2ba958f5f}, ! UUID
  {2627e6b5-c6ea-4496-90fe-fe9f40a36ccd}, ! Version UUID
  1366304815,                             ! Creation Timestamp
  1366304815,                             ! Version Timestamp
  {0e5db11c-5eb4-481e-86b2-38f2fd643db8}; ! Name of Object 1

