
OS:Version,
  {2e641dc2-f416-49b1-bd3d-dcabd10380d6}, ! Handle
  0.9.3;                                  ! Version Identifier

OS:SizingPeriod:DesignDay,
  {31ec6a5a-334a-4dbb-8983-877d07d5d503}, ! Handle
  BROWNSVILLE Ann Clg .4% Condns WB=>MDB, ! Name
  31,                                     ! Maximum Dry-Bulb Temperature {C}
  9.5,                                    ! Daily Dry-Bulb Temperature Range {deltaC}
  27,                                     ! Humidity Indicating Conditions at Maximum Dry-Bulb {BasedOnField A3}
  101253,                                 ! Barometric Pressure {Pa}
  6.9,                                    ! Wind Speed {m/s}
  160,                                    ! Wind Direction {deg}
  0,                                      ! Sky Clearness
  0,                                      ! Rain Indicator
  0,                                      ! Snow Indicator
  21,                                     ! Day of Month
  8,                                      ! Month
  SummerDesignDay,                        ! Day Type
  0,                                      ! Daylight Saving Time Indicator
  Wetbulb,                                ! Humidity Indicating Type
  ,                                       ! Humidity Indicating Day Schedule Name
  DefaultMultipliers,                     ! Dry-Bulb Temperature Range Modifier Type
  ,                                       ! Dry-Bulb Temperature Range Modifier Schedule Name
  ASHRAETau,                              ! Solar Model Indicator
  ,                                       ! Beam Solar Day Schedule Name
  ,                                       ! Diffuse Solar Day Schedule Name
  0.465,                                  ! ASHRAE Taub {dimensionless}
  2.114;                                  ! ASHRAE Taud {dimensionless}

OS:ComponentData,
  {b8f08403-ea90-416f-af7b-10f822d6fa03}, ! Handle
  Component Data 1,                       ! Name
  {b701051a-120f-4896-aa77-94cc0a2e3b68}, ! UUID
  {91193d45-0529-4187-a41a-8a3cded9bf33}, ! Version UUID
  1366310610,                             ! Creation Timestamp
  1366310610,                             ! Version Timestamp
  {31ec6a5a-334a-4dbb-8983-877d07d5d503}; ! Name of Object 1

