
OS:Version,
  {ca78a957-bc50-4060-86e1-b57474393bbd}, ! Handle
  0.9.3;                                  ! Version Identifier

OS:SizingPeriod:DesignDay,
  {dc3c7806-fca0-418d-a95a-25e82f2e6857}, ! Handle
  Golden Tri Awos Ann Hum_n 99% Condns DP=>MCDB, ! Name
  -1.8,                                   ! Maximum Dry-Bulb Temperature {C}
  0,                                      ! Daily Dry-Bulb Temperature Range {deltaC}
  -10.6,                                  ! Humidity Indicating Conditions at Maximum Dry-Bulb {BasedOnField A3}
  100368,                                 ! Barometric Pressure {Pa}
  2.1,                                    ! Wind Speed {m/s}
  350,                                    ! Wind Direction {deg}
  0,                                      ! Sky Clearness
  0,                                      ! Rain Indicator
  0,                                      ! Snow Indicator
  21,                                     ! Day of Month
  1,                                      ! Month
  WinterDesignDay,                        ! Day Type
  0,                                      ! Daylight Saving Time Indicator
  Dewpoint,                               ! Humidity Indicating Type
  ,                                       ! Humidity Indicating Day Schedule Name
  DefaultMultipliers,                     ! Dry-Bulb Temperature Range Modifier Type
  ,                                       ! Dry-Bulb Temperature Range Modifier Schedule Name
  ASHRAEClearSky;                         ! Solar Model Indicator

OS:ComponentData,
  {36ac92cb-e3dd-4816-9828-2004c7ea7aa3}, ! Handle
  Component Data 1,                       ! Name
  {8f2f6cdb-7789-47c9-b9ad-6c8591d67f44}, ! UUID
  {0fb1fd4c-dfd2-419b-b290-6f0a34e6dcef}, ! Version UUID
  1366308618,                             ! Creation Timestamp
  1366308618,                             ! Version Timestamp
  {dc3c7806-fca0-418d-a95a-25e82f2e6857}; ! Name of Object 1

