
OS:Version,
  {00c741ac-988c-446d-aa08-02b754728418}, ! Handle
  0.9.3;                                  ! Version Identifier

OS:SizingPeriod:DesignDay,
  {89ec66f2-a7e0-482a-82aa-284394a8b783}, ! Handle
  Anderson County Ap Ann Htg Wind 99% Condns WS=>MCDB, ! Name
  8,                                      ! Maximum Dry-Bulb Temperature {C}
  0,                                      ! Daily Dry-Bulb Temperature Range {deltaC}
  8,                                      ! Humidity Indicating Conditions at Maximum Dry-Bulb {BasedOnField A3}
  98569,                                  ! Barometric Pressure {Pa}
  8.9,                                    ! Wind Speed {m/s}
  270,                                    ! Wind Direction {deg}
  0,                                      ! Sky Clearness
  0,                                      ! Rain Indicator
  0,                                      ! Snow Indicator
  21,                                     ! Day of Month
  1,                                      ! Month
  WinterDesignDay,                        ! Day Type
  0,                                      ! Daylight Saving Time Indicator
  Wetbulb,                                ! Humidity Indicating Type
  ,                                       ! Humidity Indicating Day Schedule Name
  DefaultMultipliers,                     ! Dry-Bulb Temperature Range Modifier Type
  ,                                       ! Dry-Bulb Temperature Range Modifier Schedule Name
  ASHRAEClearSky;                         ! Solar Model Indicator

OS:ComponentData,
  {16107151-52f3-4d47-b859-aa65a6adbd74}, ! Handle
  Component Data 1,                       ! Name
  {216f9952-2088-4959-a024-07fdd883ee89}, ! UUID
  {064050b6-b1e5-46f4-89fa-8c495bb972bc}, ! Version UUID
  1366310312,                             ! Creation Timestamp
  1366310312,                             ! Version Timestamp
  {89ec66f2-a7e0-482a-82aa-284394a8b783}; ! Name of Object 1

