
OS:Version,
  {48c61475-398f-4706-987d-da5db7a1f5cb}, ! Handle
  0.9.3;                                  ! Version Identifier

OS:SizingPeriod:DesignDay,
  {d74d33ec-4123-4b2f-b2ad-4d9a38dd01ad}, ! Handle
  Eugene Mahlon Sweet Arpt  Uo Ann Clg .4% Condns DB=>MWB, ! Name
  33,                                     ! Maximum Dry-Bulb Temperature {C}
  15.8,                                   ! Daily Dry-Bulb Temperature Range {deltaC}
  19.2,                                   ! Humidity Indicating Conditions at Maximum Dry-Bulb {BasedOnField A3}
  100022,                                 ! Barometric Pressure {Pa}
  5.1,                                    ! Wind Speed {m/s}
  0,                                      ! Wind Direction {deg}
  0,                                      ! Sky Clearness
  0,                                      ! Rain Indicator
  0,                                      ! Snow Indicator
  21,                                     ! Day of Month
  7,                                      ! Month
  SummerDesignDay,                        ! Day Type
  0,                                      ! Daylight Saving Time Indicator
  Wetbulb,                                ! Humidity Indicating Type
  ,                                       ! Humidity Indicating Day Schedule Name
  DefaultMultipliers,                     ! Dry-Bulb Temperature Range Modifier Type
  ,                                       ! Dry-Bulb Temperature Range Modifier Schedule Name
  ASHRAETau,                              ! Solar Model Indicator
  ,                                       ! Beam Solar Day Schedule Name
  ,                                       ! Diffuse Solar Day Schedule Name
  0.357,                                  ! ASHRAE Taub {dimensionless}
  2.559;                                  ! ASHRAE Taud {dimensionless}

OS:ComponentData,
  {4bd537aa-7a08-45ce-8123-08510754b447}, ! Handle
  Component Data 1,                       ! Name
  {a432f7f8-d943-44fb-888c-3e1c465e606f}, ! UUID
  {435dbdd7-934b-40be-a1a5-4a78c83901ca}, ! Version UUID
  1366310007,                             ! Creation Timestamp
  1366310007,                             ! Version Timestamp
  {d74d33ec-4123-4b2f-b2ad-4d9a38dd01ad}; ! Name of Object 1

