
OS:Version,
  {cf01aaf9-d439-406b-9e3c-fbb8fbdc2b70}, ! Handle
  0.9.3;                                  ! Version Identifier

OS:SizingPeriod:DesignDay,
  {c87ab7aa-3c5a-4ce9-b04e-9883a6de91b5}, ! Handle
  Fort Lauderdale Hollywood Int Ann Clg 1% Condns Enth=>MDB, ! Name
  30.7,                                   ! Maximum Dry-Bulb Temperature {C}
  6.1,                                    ! Daily Dry-Bulb Temperature Range {deltaC}
  84200,                                  ! Humidity Indicating Conditions at Maximum Dry-Bulb {BasedOnField A3}
  101289,                                 ! Barometric Pressure {Pa}
  4.8,                                    ! Wind Speed {m/s}
  140,                                    ! Wind Direction {deg}
  0,                                      ! Sky Clearness
  0,                                      ! Rain Indicator
  0,                                      ! Snow Indicator
  21,                                     ! Day of Month
  7,                                      ! Month
  SummerDesignDay,                        ! Day Type
  0,                                      ! Daylight Saving Time Indicator
  Enthalpy,                               ! Humidity Indicating Type
  ,                                       ! Humidity Indicating Day Schedule Name
  DefaultMultipliers,                     ! Dry-Bulb Temperature Range Modifier Type
  ,                                       ! Dry-Bulb Temperature Range Modifier Schedule Name
  ASHRAETau,                              ! Solar Model Indicator
  ,                                       ! Beam Solar Day Schedule Name
  ,                                       ! Diffuse Solar Day Schedule Name
  0.518,                                  ! ASHRAE Taub {dimensionless}
  1.938;                                  ! ASHRAE Taud {dimensionless}

OS:ComponentData,
  {e0320991-32cc-49c1-8b75-34ebca28e846}, ! Handle
  Component Data 1,                       ! Name
  {7a08baf7-a0d9-483a-9eca-771d724572ef}, ! UUID
  {12f98b4d-0614-4863-92e2-00a9afad52eb}, ! Version UUID
  1366306798,                             ! Creation Timestamp
  1366306798,                             ! Version Timestamp
  {c87ab7aa-3c5a-4ce9-b04e-9883a6de91b5}; ! Name of Object 1

