
OS:Version,
  {29cdceb1-3598-443a-9026-ddc70d4f22ed}, ! Handle
  0.9.3;                                  ! Version Identifier

OS:SizingPeriod:DesignDay,
  {793ab160-5c50-409a-8751-f209c9effc64}, ! Handle
  LUFKIN Ann Htg Wind 99.6% Condns WS=>MCDB, ! Name
  13.4,                                   ! Maximum Dry-Bulb Temperature {C}
  0,                                      ! Daily Dry-Bulb Temperature Range {deltaC}
  13.4,                                   ! Humidity Indicating Conditions at Maximum Dry-Bulb {BasedOnField A3}
  100177,                                 ! Barometric Pressure {Pa}
  8.9,                                    ! Wind Speed {m/s}
  340,                                    ! Wind Direction {deg}
  0,                                      ! Sky Clearness
  0,                                      ! Rain Indicator
  0,                                      ! Snow Indicator
  21,                                     ! Day of Month
  1,                                      ! Month
  WinterDesignDay,                        ! Day Type
  0,                                      ! Daylight Saving Time Indicator
  Wetbulb,                                ! Humidity Indicating Type
  ,                                       ! Humidity Indicating Day Schedule Name
  DefaultMultipliers,                     ! Dry-Bulb Temperature Range Modifier Type
  ,                                       ! Dry-Bulb Temperature Range Modifier Schedule Name
  ASHRAEClearSky;                         ! Solar Model Indicator

OS:ComponentData,
  {4ab512e3-2efb-499f-93d8-f183955cd727}, ! Handle
  Component Data 1,                       ! Name
  {3393661d-fe34-4572-8139-da2482b1eb5d}, ! UUID
  {81fa989c-ee82-4dea-a01a-60699ea3012c}, ! Version UUID
  1366310810,                             ! Creation Timestamp
  1366310810,                             ! Version Timestamp
  {793ab160-5c50-409a-8751-f209c9effc64}; ! Name of Object 1

