
OS:Version,
  {efd2a9a0-db88-4aee-aa98-6218f844c8aa}, ! Handle
  0.9.3;                                  ! Version Identifier

OS:SizingPeriod:DesignDay,
  {116ddf31-5d21-494f-9678-685657216c18}, ! Handle
  Evansville Ann Htg 99.6% Condns DB,     ! Name
  -14.7,                                  ! Maximum Dry-Bulb Temperature {C}
  0,                                      ! Daily Dry-Bulb Temperature Range {deltaC}
  -14.7,                                  ! Humidity Indicating Conditions at Maximum Dry-Bulb {BasedOnField A3}
  99915,                                  ! Barometric Pressure {Pa}
  3.4,                                    ! Wind Speed {m/s}
  320,                                    ! Wind Direction {deg}
  0,                                      ! Sky Clearness
  0,                                      ! Rain Indicator
  0,                                      ! Snow Indicator
  21,                                     ! Day of Month
  1,                                      ! Month
  WinterDesignDay,                        ! Day Type
  0,                                      ! Daylight Saving Time Indicator
  Wetbulb,                                ! Humidity Indicating Type
  ,                                       ! Humidity Indicating Day Schedule Name
  DefaultMultipliers,                     ! Dry-Bulb Temperature Range Modifier Type
  ,                                       ! Dry-Bulb Temperature Range Modifier Schedule Name
  ASHRAEClearSky;                         ! Solar Model Indicator

OS:ComponentData,
  {885344ee-4587-4e26-b8e9-7dda27decbaa}, ! Handle
  Component Data 1,                       ! Name
  {c8534955-5ff7-49ec-aed1-de68c6a0ee73}, ! UUID
  {e9161b6d-da33-4f37-b98a-8586fa5960f0}, ! Version UUID
  1366307427,                             ! Creation Timestamp
  1366307427,                             ! Version Timestamp
  {116ddf31-5d21-494f-9678-685657216c18}; ! Name of Object 1

