
OS:Version,
  {8426040d-2c4e-46e6-98f5-8a2e4be26589}, ! Handle
  0.9.3;                                  ! Version Identifier

OS:SizingPeriod:DesignDay,
  {c5e56c54-5e0b-4d52-b3f2-87d8f7e69407}, ! Handle
  El Toro MCAS Ann Clg 2% Condns Enth=>MDB, ! Name
  27.8,                                   ! Maximum Dry-Bulb Temperature {C}
  10.4,                                   ! Daily Dry-Bulb Temperature Range {deltaC}
  59900,                                  ! Humidity Indicating Conditions at Maximum Dry-Bulb {BasedOnField A3}
  99939,                                  ! Barometric Pressure {Pa}
  2.6,                                    ! Wind Speed {m/s}
  270,                                    ! Wind Direction {deg}
  0,                                      ! Sky Clearness
  0,                                      ! Rain Indicator
  0,                                      ! Snow Indicator
  21,                                     ! Day of Month
  8,                                      ! Month
  SummerDesignDay,                        ! Day Type
  0,                                      ! Daylight Saving Time Indicator
  Enthalpy,                               ! Humidity Indicating Type
  ,                                       ! Humidity Indicating Day Schedule Name
  DefaultMultipliers,                     ! Dry-Bulb Temperature Range Modifier Type
  ,                                       ! Dry-Bulb Temperature Range Modifier Schedule Name
  ASHRAETau,                              ! Solar Model Indicator
  ,                                       ! Beam Solar Day Schedule Name
  ,                                       ! Diffuse Solar Day Schedule Name
  0.436,                                  ! ASHRAE Taub {dimensionless}
  2.109;                                  ! ASHRAE Taud {dimensionless}

OS:ComponentData,
  {ff38bd86-6a3c-4d1d-ba38-691a7e7a5187}, ! Handle
  Component Data 1,                       ! Name
  {c4446938-2b44-4588-915b-c16ff3c2028f}, ! UUID
  {5fb90dfd-519a-4731-9633-b4febffc34b4}, ! Version UUID
  1366306424,                             ! Creation Timestamp
  1366306424,                             ! Version Timestamp
  {c5e56c54-5e0b-4d52-b3f2-87d8f7e69407}; ! Name of Object 1

