
OS:Version,
  {f65d80fd-4573-4dd4-9fb0-ff1ef800d144}, ! Handle
  0.9.3;                                  ! Version Identifier

OS:SizingPeriod:DesignDay,
  {98198738-2ca8-4281-b8be-ad4ca2364ab4}, ! Handle
  Farmville Ann Htg Wind 99.6% Condns WS=>MCDB, ! Name
  9.4,                                    ! Maximum Dry-Bulb Temperature {C}
  0,                                      ! Daily Dry-Bulb Temperature Range {deltaC}
  9.4,                                    ! Humidity Indicating Conditions at Maximum Dry-Bulb {BasedOnField A3}
  99832,                                  ! Barometric Pressure {Pa}
  9,                                      ! Wind Speed {m/s}
  270,                                    ! Wind Direction {deg}
  0,                                      ! Sky Clearness
  0,                                      ! Rain Indicator
  0,                                      ! Snow Indicator
  21,                                     ! Day of Month
  1,                                      ! Month
  WinterDesignDay,                        ! Day Type
  0,                                      ! Daylight Saving Time Indicator
  Wetbulb,                                ! Humidity Indicating Type
  ,                                       ! Humidity Indicating Day Schedule Name
  DefaultMultipliers,                     ! Dry-Bulb Temperature Range Modifier Type
  ,                                       ! Dry-Bulb Temperature Range Modifier Schedule Name
  ASHRAEClearSky;                         ! Solar Model Indicator

OS:ComponentData,
  {8e983f8c-5fc2-437c-b845-ceec466c27db}, ! Handle
  Component Data 1,                       ! Name
  {922e5c13-e0cc-4465-bf7a-eba9d5a9adcf}, ! UUID
  {ce0e6a36-abc5-42d5-b7d7-6fc368360531}, ! Version UUID
  1366311044,                             ! Creation Timestamp
  1366311044,                             ! Version Timestamp
  {98198738-2ca8-4281-b8be-ad4ca2364ab4}; ! Name of Object 1

