
OS:Version,
  {df86cabb-2045-4fc3-872f-a0bedf1bdb5e}, ! Handle
  0.9.3;                                  ! Version Identifier

OS:SizingPeriod:DesignDay,
  {c65f6cac-d7f5-47d2-bac8-c1f930df9238}, ! Handle
  BINGHAMTON Ann Clg .4% Condns DB=>MWB,  ! Name
  29.7,                                   ! Maximum Dry-Bulb Temperature {C}
  9.7,                                    ! Daily Dry-Bulb Temperature Range {deltaC}
  21.1,                                   ! Humidity Indicating Conditions at Maximum Dry-Bulb {BasedOnField A3}
  95472,                                  ! Barometric Pressure {Pa}
  4.6,                                    ! Wind Speed {m/s}
  240,                                    ! Wind Direction {deg}
  0,                                      ! Sky Clearness
  0,                                      ! Rain Indicator
  0,                                      ! Snow Indicator
  21,                                     ! Day of Month
  7,                                      ! Month
  SummerDesignDay,                        ! Day Type
  0,                                      ! Daylight Saving Time Indicator
  Wetbulb,                                ! Humidity Indicating Type
  ,                                       ! Humidity Indicating Day Schedule Name
  DefaultMultipliers,                     ! Dry-Bulb Temperature Range Modifier Type
  ,                                       ! Dry-Bulb Temperature Range Modifier Schedule Name
  ASHRAETau,                              ! Solar Model Indicator
  ,                                       ! Beam Solar Day Schedule Name
  ,                                       ! Diffuse Solar Day Schedule Name
  0.452,                                  ! ASHRAE Taub {dimensionless}
  2.004;                                  ! ASHRAE Taud {dimensionless}

OS:ComponentData,
  {1bc0262a-2523-47f5-924e-49d194af1928}, ! Handle
  Component Data 1,                       ! Name
  {6692aa1d-e7b4-41da-ab17-cb02b4506cda}, ! UUID
  {ba72cfcc-54b5-4e29-b006-e8aa269781fa}, ! Version UUID
  1366309598,                             ! Creation Timestamp
  1366309598,                             ! Version Timestamp
  {c65f6cac-d7f5-47d2-bac8-c1f930df9238}; ! Name of Object 1

