
OS:Version,
  {95b9a360-2f6c-487d-8ef0-f7528909fdce}, ! Handle
  0.9.3;                                  ! Version Identifier

OS:SizingPeriod:DesignDay,
  {8176c962-dcf1-43cd-91e6-83fc8cfeb3ac}, ! Handle
  Concord Ann Htg Wind 99% Condns WS=>MCDB, ! Name
  -8.2,                                   ! Maximum Dry-Bulb Temperature {C}
  0,                                      ! Daily Dry-Bulb Temperature Range {deltaC}
  -8.2,                                   ! Humidity Indicating Conditions at Maximum Dry-Bulb {BasedOnField A3}
  100070,                                 ! Barometric Pressure {Pa}
  10.5,                                   ! Wind Speed {m/s}
  320,                                    ! Wind Direction {deg}
  0,                                      ! Sky Clearness
  0,                                      ! Rain Indicator
  0,                                      ! Snow Indicator
  21,                                     ! Day of Month
  1,                                      ! Month
  WinterDesignDay,                        ! Day Type
  0,                                      ! Daylight Saving Time Indicator
  Wetbulb,                                ! Humidity Indicating Type
  ,                                       ! Humidity Indicating Day Schedule Name
  DefaultMultipliers,                     ! Dry-Bulb Temperature Range Modifier Type
  ,                                       ! Dry-Bulb Temperature Range Modifier Schedule Name
  ASHRAEClearSky;                         ! Solar Model Indicator

OS:ComponentData,
  {7484d8b5-4422-4146-939f-979f80496d37}, ! Handle
  Component Data 1,                       ! Name
  {fc571058-9137-42f0-a2a7-b6da88c5d41b}, ! UUID
  {3cdbbf78-943b-4df4-9739-f1c001a38a2d}, ! Version UUID
  1366309225,                             ! Creation Timestamp
  1366309225,                             ! Version Timestamp
  {8176c962-dcf1-43cd-91e6-83fc8cfeb3ac}; ! Name of Object 1

