
OS:Version,
  {ec2ed2cb-7ec7-4ef9-ac55-5149e9604009}, ! Handle
  0.9.3;                                  ! Version Identifier

OS:SizingPeriod:DesignDay,
  {4c923b2f-71f0-49ac-8827-38810e84500f}, ! Handle
  Dover Afb Ann Clg 1% Condns DB=>MWB,    ! Name
  32.1,                                   ! Maximum Dry-Bulb Temperature {C}
  9.1,                                    ! Daily Dry-Bulb Temperature Range {deltaC}
  23.8,                                   ! Humidity Indicating Conditions at Maximum Dry-Bulb {BasedOnField A3}
  101241,                                 ! Barometric Pressure {Pa}
  4.2,                                    ! Wind Speed {m/s}
  240,                                    ! Wind Direction {deg}
  0,                                      ! Sky Clearness
  0,                                      ! Rain Indicator
  0,                                      ! Snow Indicator
  21,                                     ! Day of Month
  7,                                      ! Month
  SummerDesignDay,                        ! Day Type
  0,                                      ! Daylight Saving Time Indicator
  Wetbulb,                                ! Humidity Indicating Type
  ,                                       ! Humidity Indicating Day Schedule Name
  DefaultMultipliers,                     ! Dry-Bulb Temperature Range Modifier Type
  ,                                       ! Dry-Bulb Temperature Range Modifier Schedule Name
  ASHRAETau,                              ! Solar Model Indicator
  ,                                       ! Beam Solar Day Schedule Name
  ,                                       ! Diffuse Solar Day Schedule Name
  0.575,                                  ! ASHRAE Taub {dimensionless}
  1.719;                                  ! ASHRAE Taud {dimensionless}

OS:ComponentData,
  {73822d6b-347b-47be-b12e-d5d25553169d}, ! Handle
  Component Data 1,                       ! Name
  {ba95238d-da4a-40c8-acfa-340362697501}, ! UUID
  {0f813387-5a6e-47cf-b726-45fe85b82ddd}, ! Version UUID
  1366306770,                             ! Creation Timestamp
  1366306770,                             ! Version Timestamp
  {4c923b2f-71f0-49ac-8827-38810e84500f}; ! Name of Object 1

