
OS:Version,
  {605e5080-df1c-4ed0-8c66-64118125b7c5}, ! Handle
  0.9.3;                                  ! Version Identifier

OS:SizingPeriod:DesignDay,
  {9d4eeb3f-6fce-484b-926a-5687d5c16491}, ! Handle
  DAYTONA_BEACH Ann Hum_n 99.6% Condns DP=>MCDB, ! Name
  6.2,                                    ! Maximum Dry-Bulb Temperature {C}
  0,                                      ! Daily Dry-Bulb Temperature Range {deltaC}
  -7,                                     ! Humidity Indicating Conditions at Maximum Dry-Bulb {BasedOnField A3}
  101181,                                 ! Barometric Pressure {Pa}
  2.8,                                    ! Wind Speed {m/s}
  310,                                    ! Wind Direction {deg}
  0,                                      ! Sky Clearness
  0,                                      ! Rain Indicator
  0,                                      ! Snow Indicator
  21,                                     ! Day of Month
  1,                                      ! Month
  WinterDesignDay,                        ! Day Type
  0,                                      ! Daylight Saving Time Indicator
  Dewpoint,                               ! Humidity Indicating Type
  ,                                       ! Humidity Indicating Day Schedule Name
  DefaultMultipliers,                     ! Dry-Bulb Temperature Range Modifier Type
  ,                                       ! Dry-Bulb Temperature Range Modifier Schedule Name
  ASHRAEClearSky;                         ! Solar Model Indicator

OS:ComponentData,
  {0a602a25-0149-4b37-b56d-8d8ad16177a1}, ! Handle
  Component Data 1,                       ! Name
  {550477ab-1c81-4797-8a68-cfd61a9328b4}, ! UUID
  {f9c0b899-4cf5-43d4-9f70-705f66cda6a9}, ! Version UUID
  1366306786,                             ! Creation Timestamp
  1366306786,                             ! Version Timestamp
  {9d4eeb3f-6fce-484b-926a-5687d5c16491}; ! Name of Object 1

