
OS:Version,
  {92f62e67-16e1-4636-9a63-f0b677e73df6}, ! Handle
  0.9.3;                                  ! Version Identifier

OS:SizingPeriod:DesignDay,
  {7b639259-5c56-454e-a2d1-ee6fee9acef7}, ! Handle
  Aspen Pitkin Co Sar Ann Hum_n 99% Condns DP=>MCDB, ! Name
  -14.6,                                  ! Maximum Dry-Bulb Temperature {C}
  0,                                      ! Daily Dry-Bulb Temperature Range {deltaC}
  -21.3,                                  ! Humidity Indicating Conditions at Maximum Dry-Bulb {BasedOnField A3}
  75209,                                  ! Barometric Pressure {Pa}
  2.3,                                    ! Wind Speed {m/s}
  200,                                    ! Wind Direction {deg}
  0,                                      ! Sky Clearness
  0,                                      ! Rain Indicator
  0,                                      ! Snow Indicator
  21,                                     ! Day of Month
  12,                                     ! Month
  WinterDesignDay,                        ! Day Type
  0,                                      ! Daylight Saving Time Indicator
  Dewpoint,                               ! Humidity Indicating Type
  ,                                       ! Humidity Indicating Day Schedule Name
  DefaultMultipliers,                     ! Dry-Bulb Temperature Range Modifier Type
  ,                                       ! Dry-Bulb Temperature Range Modifier Schedule Name
  ASHRAEClearSky;                         ! Solar Model Indicator

OS:ComponentData,
  {ca81ca54-6cde-4317-aaf0-3ec8dd8f8c49}, ! Handle
  Component Data 1,                       ! Name
  {d4fbc607-59c5-4009-992c-dc731d619359}, ! UUID
  {83c16eae-606c-4724-8ac5-dbf0526b6ffc}, ! Version UUID
  1366306650,                             ! Creation Timestamp
  1366306650,                             ! Version Timestamp
  {7b639259-5c56-454e-a2d1-ee6fee9acef7}; ! Name of Object 1

