
OS:Version,
  {e743d44c-b0a7-426c-bb8e-44324979ba89}, ! Handle
  0.9.3;                                  ! Version Identifier

OS:SizingPeriod:DesignDay,
  {03eb5bae-3e46-462f-a14a-82bb25b07f1b}, ! Handle
  CEDAR_CITY Ann Clg 2% Condns Enth=>MDB, ! Name
  26.7,                                   ! Maximum Dry-Bulb Temperature {C}
  16.7,                                   ! Daily Dry-Bulb Temperature Range {deltaC}
  51400,                                  ! Humidity Indicating Conditions at Maximum Dry-Bulb {BasedOnField A3}
  82379,                                  ! Barometric Pressure {Pa}
  5,                                      ! Wind Speed {m/s}
  210,                                    ! Wind Direction {deg}
  0,                                      ! Sky Clearness
  0,                                      ! Rain Indicator
  0,                                      ! Snow Indicator
  21,                                     ! Day of Month
  7,                                      ! Month
  SummerDesignDay,                        ! Day Type
  0,                                      ! Daylight Saving Time Indicator
  Enthalpy,                               ! Humidity Indicating Type
  ,                                       ! Humidity Indicating Day Schedule Name
  DefaultMultipliers,                     ! Dry-Bulb Temperature Range Modifier Type
  ,                                       ! Dry-Bulb Temperature Range Modifier Schedule Name
  ASHRAETau,                              ! Solar Model Indicator
  ,                                       ! Beam Solar Day Schedule Name
  ,                                       ! Diffuse Solar Day Schedule Name
  0.415,                                  ! ASHRAE Taub {dimensionless}
  2.019;                                  ! ASHRAE Taud {dimensionless}

OS:ComponentData,
  {c23a39e9-357c-4101-bd11-e695fd2cc290}, ! Handle
  Component Data 1,                       ! Name
  {1c21bd4b-1ddb-4e5d-99a6-8576dc79bd28}, ! UUID
  {f8259109-8877-4329-80c4-e5dfc9b77248}, ! Version UUID
  1366310950,                             ! Creation Timestamp
  1366310950,                             ! Version Timestamp
  {03eb5bae-3e46-462f-a14a-82bb25b07f1b}; ! Name of Object 1

