
OS:Version,
  {62857c70-e4f2-478a-acad-c86eb3d04348}, ! Handle
  0.9.3;                                  ! Version Identifier

OS:SizingPeriod:DesignDay,
  {19e15578-d237-4acd-a63c-d6f21cde6299}, ! Handle
  Concord Municipal Arpt Ann Htg Wind 99% Condns WS=>MCDB, ! Name
  -8.2,                                   ! Maximum Dry-Bulb Temperature {C}
  0,                                      ! Daily Dry-Bulb Temperature Range {deltaC}
  -8.2,                                   ! Humidity Indicating Conditions at Maximum Dry-Bulb {BasedOnField A3}
  100058,                                 ! Barometric Pressure {Pa}
  10.5,                                   ! Wind Speed {m/s}
  320,                                    ! Wind Direction {deg}
  0,                                      ! Sky Clearness
  0,                                      ! Rain Indicator
  0,                                      ! Snow Indicator
  21,                                     ! Day of Month
  1,                                      ! Month
  WinterDesignDay,                        ! Day Type
  0,                                      ! Daylight Saving Time Indicator
  Wetbulb,                                ! Humidity Indicating Type
  ,                                       ! Humidity Indicating Day Schedule Name
  DefaultMultipliers,                     ! Dry-Bulb Temperature Range Modifier Type
  ,                                       ! Dry-Bulb Temperature Range Modifier Schedule Name
  ASHRAEClearSky;                         ! Solar Model Indicator

OS:ComponentData,
  {343c41c0-01a8-42d0-b0c2-184030335bec}, ! Handle
  Component Data 1,                       ! Name
  {7f03a846-e7f1-4199-88aa-a3572c88ac3d}, ! UUID
  {e6ad7b1c-075c-4911-bf5e-65e36dbf2b15}, ! Version UUID
  1366309230,                             ! Creation Timestamp
  1366309230,                             ! Version Timestamp
  {19e15578-d237-4acd-a63c-d6f21cde6299}; ! Name of Object 1

