
OS:Version,
  {38f3f439-68dc-45fe-8517-69acc361a47f}, ! Handle
  0.9.3;                                  ! Version Identifier

OS:SizingPeriod:DesignDay,
  {babb5cec-e6d0-4a40-af34-0ac952f45580}, ! Handle
  Lubbock/Int'l Arpt Ann Htg 99.6% Condns DB, ! Name
  -10.4,                                  ! Maximum Dry-Bulb Temperature {C}
  0,                                      ! Daily Dry-Bulb Temperature Range {deltaC}
  -10.4,                                  ! Humidity Indicating Conditions at Maximum Dry-Bulb {BasedOnField A3}
  90005,                                  ! Barometric Pressure {Pa}
  4.8,                                    ! Wind Speed {m/s}
  60,                                     ! Wind Direction {deg}
  0,                                      ! Sky Clearness
  0,                                      ! Rain Indicator
  0,                                      ! Snow Indicator
  21,                                     ! Day of Month
  12,                                     ! Month
  WinterDesignDay,                        ! Day Type
  0,                                      ! Daylight Saving Time Indicator
  Wetbulb,                                ! Humidity Indicating Type
  ,                                       ! Humidity Indicating Day Schedule Name
  DefaultMultipliers,                     ! Dry-Bulb Temperature Range Modifier Type
  ,                                       ! Dry-Bulb Temperature Range Modifier Schedule Name
  ASHRAEClearSky;                         ! Solar Model Indicator

OS:ComponentData,
  {d210f9ed-a27f-4aff-910a-2f7042c34bff}, ! Handle
  Component Data 1,                       ! Name
  {ae92e1e3-10b5-420f-8058-a545d51a300c}, ! UUID
  {5d1beceb-5c02-4923-b447-4cfab3524424}, ! Version UUID
  1366310794,                             ! Creation Timestamp
  1366310794,                             ! Version Timestamp
  {babb5cec-e6d0-4a40-af34-0ac952f45580}; ! Name of Object 1

