
OS:Version,
  {84bcf820-5a05-4415-b68b-744762c7d71f}, ! Handle
  0.9.3;                                  ! Version Identifier

OS:SizingPeriod:DesignDay,
  {59084397-6c3a-4c02-bd07-59ca248e08f2}, ! Handle
  Lakehurst NAS Ann Htg 99.6% Condns DB,  ! Name
  -12.1,                                  ! Maximum Dry-Bulb Temperature {C}
  0,                                      ! Daily Dry-Bulb Temperature Range {deltaC}
  -12.1,                                  ! Humidity Indicating Conditions at Maximum Dry-Bulb {BasedOnField A3}
  100917,                                 ! Barometric Pressure {Pa}
  4.1,                                    ! Wind Speed {m/s}
  350,                                    ! Wind Direction {deg}
  0,                                      ! Sky Clearness
  0,                                      ! Rain Indicator
  0,                                      ! Snow Indicator
  21,                                     ! Day of Month
  1,                                      ! Month
  WinterDesignDay,                        ! Day Type
  0,                                      ! Daylight Saving Time Indicator
  Wetbulb,                                ! Humidity Indicating Type
  ,                                       ! Humidity Indicating Day Schedule Name
  DefaultMultipliers,                     ! Dry-Bulb Temperature Range Modifier Type
  ,                                       ! Dry-Bulb Temperature Range Modifier Schedule Name
  ASHRAEClearSky;                         ! Solar Model Indicator

OS:ComponentData,
  {7ccb4297-f080-4075-aa60-95dd370ee87b}, ! Handle
  Component Data 1,                       ! Name
  {ae722d0c-9ebe-4aca-9650-67616a98c3c0}, ! UUID
  {9a84533b-e275-4cce-ae69-976a7baeb89b}, ! Version UUID
  1366309306,                             ! Creation Timestamp
  1366309306,                             ! Version Timestamp
  {59084397-6c3a-4c02-bd07-59ca248e08f2}; ! Name of Object 1

