
OS:Version,
  {a71ce073-54fc-48fa-99e5-670efa001812}, ! Handle
  0.9.3;                                  ! Version Identifier

OS:SizingPeriod:DesignDay,
  {0bd9d94a-e059-4b11-931d-288e09eb8480}, ! Handle
  Brainerd Wieland Ann Clg .4% Condns DP=>MDB, ! Name
  27.5,                                   ! Maximum Dry-Bulb Temperature {C}
  11.7,                                   ! Daily Dry-Bulb Temperature Range {deltaC}
  22.5,                                   ! Humidity Indicating Conditions at Maximum Dry-Bulb {BasedOnField A3}
  96912,                                  ! Barometric Pressure {Pa}
  5.2,                                    ! Wind Speed {m/s}
  200,                                    ! Wind Direction {deg}
  0,                                      ! Sky Clearness
  0,                                      ! Rain Indicator
  0,                                      ! Snow Indicator
  21,                                     ! Day of Month
  7,                                      ! Month
  SummerDesignDay,                        ! Day Type
  0,                                      ! Daylight Saving Time Indicator
  Dewpoint,                               ! Humidity Indicating Type
  ,                                       ! Humidity Indicating Day Schedule Name
  DefaultMultipliers,                     ! Dry-Bulb Temperature Range Modifier Type
  ,                                       ! Dry-Bulb Temperature Range Modifier Schedule Name
  ASHRAETau,                              ! Solar Model Indicator
  ,                                       ! Beam Solar Day Schedule Name
  ,                                       ! Diffuse Solar Day Schedule Name
  0.394,                                  ! ASHRAE Taub {dimensionless}
  2.249;                                  ! ASHRAE Taud {dimensionless}

OS:ComponentData,
  {05143e9d-9740-41cc-beff-1999d6cd400b}, ! Handle
  Component Data 1,                       ! Name
  {cc78be9b-310e-464e-a1a3-985bd4b79a89}, ! UUID
  {8db722e8-cd37-4b9f-bfb5-c3a3d7e31267}, ! Version UUID
  1366308172,                             ! Creation Timestamp
  1366308172,                             ! Version Timestamp
  {0bd9d94a-e059-4b11-931d-288e09eb8480}; ! Name of Object 1

