
OS:Version,
  {77b96504-ad92-4f6e-8b6f-a95def7f66ac}, ! Handle
  0.9.3;                                  ! Version Identifier

OS:SizingPeriod:DesignDay,
  {746ac948-86d1-4e6f-b2ac-00f699e675d3}, ! Handle
  Great Falls Intl Arpt Ann Hum_n 99% Condns DP=>MCDB, ! Name
  -23.9,                                  ! Maximum Dry-Bulb Temperature {C}
  0,                                      ! Daily Dry-Bulb Temperature Range {deltaC}
  -27.6,                                  ! Humidity Indicating Conditions at Maximum Dry-Bulb {BasedOnField A3}
  88606,                                  ! Barometric Pressure {Pa}
  2.7,                                    ! Wind Speed {m/s}
  230,                                    ! Wind Direction {deg}
  0,                                      ! Sky Clearness
  0,                                      ! Rain Indicator
  0,                                      ! Snow Indicator
  21,                                     ! Day of Month
  1,                                      ! Month
  WinterDesignDay,                        ! Day Type
  0,                                      ! Daylight Saving Time Indicator
  Dewpoint,                               ! Humidity Indicating Type
  ,                                       ! Humidity Indicating Day Schedule Name
  DefaultMultipliers,                     ! Dry-Bulb Temperature Range Modifier Type
  ,                                       ! Dry-Bulb Temperature Range Modifier Schedule Name
  ASHRAEClearSky;                         ! Solar Model Indicator

OS:ComponentData,
  {9c1faa9d-c4eb-4400-84b3-7355487c682c}, ! Handle
  Component Data 1,                       ! Name
  {51b8f30c-e999-4c0f-a480-e967a6e51a5e}, ! UUID
  {5c764da9-6e63-4818-bc78-71765b252220}, ! Version UUID
  1366308780,                             ! Creation Timestamp
  1366308780,                             ! Version Timestamp
  {746ac948-86d1-4e6f-b2ac-00f699e675d3}; ! Name of Object 1

