
OS:Version,
  {81d517a0-085c-491c-a0b1-6b9730f47986}, ! Handle
  0.9.3;                                  ! Version Identifier

OS:SizingPeriod:DesignDay,
  {44f97c83-eea0-42f8-96d4-a7ec1e928bfc}, ! Handle
  Astoria Ann Clg 2% Condns WB=>MDB,      ! Name
  20,                                     ! Maximum Dry-Bulb Temperature {C}
  7.9,                                    ! Daily Dry-Bulb Temperature Range {deltaC}
  16.7,                                   ! Humidity Indicating Conditions at Maximum Dry-Bulb {BasedOnField A3}
  101241,                                 ! Barometric Pressure {Pa}
  5.1,                                    ! Wind Speed {m/s}
  310,                                    ! Wind Direction {deg}
  0,                                      ! Sky Clearness
  0,                                      ! Rain Indicator
  0,                                      ! Snow Indicator
  21,                                     ! Day of Month
  8,                                      ! Month
  SummerDesignDay,                        ! Day Type
  0,                                      ! Daylight Saving Time Indicator
  Wetbulb,                                ! Humidity Indicating Type
  ,                                       ! Humidity Indicating Day Schedule Name
  DefaultMultipliers,                     ! Dry-Bulb Temperature Range Modifier Type
  ,                                       ! Dry-Bulb Temperature Range Modifier Schedule Name
  ASHRAETau,                              ! Solar Model Indicator
  ,                                       ! Beam Solar Day Schedule Name
  ,                                       ! Diffuse Solar Day Schedule Name
  0.355,                                  ! ASHRAE Taub {dimensionless}
  2.571;                                  ! ASHRAE Taud {dimensionless}

OS:ComponentData,
  {46f2c772-93f7-4fd8-a542-2640978dbf46}, ! Handle
  Component Data 1,                       ! Name
  {ce069fbf-4a9d-41f2-b89d-6715e5326798}, ! UUID
  {8dc4ee69-d7fe-49c9-a717-0ddc1829508e}, ! Version UUID
  1366309972,                             ! Creation Timestamp
  1366309972,                             ! Version Timestamp
  {44f97c83-eea0-42f8-96d4-a7ec1e928bfc}; ! Name of Object 1

