
OS:Version,
  {66c2e53e-2201-4cf3-a899-4583f276c556}, ! Handle
  0.9.3;                                  ! Version Identifier

OS:SizingPeriod:DesignDay,
  {753bb434-1ab1-49cc-865b-9b9ed88cfb20}, ! Handle
  Glasgow Intl Arpt Ann Clg 2% Condns DP=>MDB, ! Name
  21.4,                                   ! Maximum Dry-Bulb Temperature {C}
  14.5,                                   ! Daily Dry-Bulb Temperature Range {deltaC}
  14.8,                                   ! Humidity Indicating Conditions at Maximum Dry-Bulb {BasedOnField A3}
  93205,                                  ! Barometric Pressure {Pa}
  5.4,                                    ! Wind Speed {m/s}
  150,                                    ! Wind Direction {deg}
  0,                                      ! Sky Clearness
  0,                                      ! Rain Indicator
  0,                                      ! Snow Indicator
  21,                                     ! Day of Month
  7,                                      ! Month
  SummerDesignDay,                        ! Day Type
  0,                                      ! Daylight Saving Time Indicator
  Dewpoint,                               ! Humidity Indicating Type
  ,                                       ! Humidity Indicating Day Schedule Name
  DefaultMultipliers,                     ! Dry-Bulb Temperature Range Modifier Type
  ,                                       ! Dry-Bulb Temperature Range Modifier Schedule Name
  ASHRAETau,                              ! Solar Model Indicator
  ,                                       ! Beam Solar Day Schedule Name
  ,                                       ! Diffuse Solar Day Schedule Name
  0.424,                                  ! ASHRAE Taub {dimensionless}
  2.044;                                  ! ASHRAE Taud {dimensionless}

OS:ComponentData,
  {e332cb14-5074-454d-aa4b-d5f006385bef}, ! Handle
  Component Data 1,                       ! Name
  {5a5d6898-3207-4e9a-98cf-8a128c7db70f}, ! UUID
  {5f4ebe76-6178-4e63-849e-31bf9ca14fdf}, ! Version UUID
  1366308764,                             ! Creation Timestamp
  1366308764,                             ! Version Timestamp
  {753bb434-1ab1-49cc-865b-9b9ed88cfb20}; ! Name of Object 1

