
OS:Version,
  {7297b5a2-6d1d-43c0-b62a-caad82b1fd74}, ! Handle
  0.9.3;                                  ! Version Identifier

OS:SizingPeriod:DesignDay,
  {e538f617-d372-4768-b1f8-2b4ee20b0119}, ! Handle
  Bakersfield Meadows Field Ann Htg 99.6% Condns DB, ! Name
  0.1,                                    ! Maximum Dry-Bulb Temperature {C}
  0,                                      ! Daily Dry-Bulb Temperature Range {deltaC}
  0.1,                                    ! Humidity Indicating Conditions at Maximum Dry-Bulb {BasedOnField A3}
  99548,                                  ! Barometric Pressure {Pa}
  1.7,                                    ! Wind Speed {m/s}
  90,                                     ! Wind Direction {deg}
  0,                                      ! Sky Clearness
  0,                                      ! Rain Indicator
  0,                                      ! Snow Indicator
  21,                                     ! Day of Month
  12,                                     ! Month
  WinterDesignDay,                        ! Day Type
  0,                                      ! Daylight Saving Time Indicator
  Wetbulb,                                ! Humidity Indicating Type
  ,                                       ! Humidity Indicating Day Schedule Name
  DefaultMultipliers,                     ! Dry-Bulb Temperature Range Modifier Type
  ,                                       ! Dry-Bulb Temperature Range Modifier Schedule Name
  ASHRAEClearSky;                         ! Solar Model Indicator

OS:ComponentData,
  {56ca5d81-ae31-4c5b-a2dc-a71afd01cb0d}, ! Handle
  Component Data 1,                       ! Name
  {df161bcc-be53-4560-a021-8ab6b87c5f6b}, ! UUID
  {dadcd86e-f33a-4947-b36b-d3645852e184}, ! Version UUID
  1366306363,                             ! Creation Timestamp
  1366306363,                             ! Version Timestamp
  {e538f617-d372-4768-b1f8-2b4ee20b0119}; ! Name of Object 1

