
OS:Version,
  {41099181-e331-4af5-ac20-669cb764e60a}, ! Handle
  0.9.3;                                  ! Version Identifier

OS:SizingPeriod:DesignDay,
  {aa9bf11c-f796-47bd-8cd6-4fa50897d231}, ! Handle
  INDIANAPOLIS Ann Clg .4% Condns WB=>MDB, ! Name
  30.9,                                   ! Maximum Dry-Bulb Temperature {C}
  10.2,                                   ! Daily Dry-Bulb Temperature Range {deltaC}
  25.7,                                   ! Humidity Indicating Conditions at Maximum Dry-Bulb {BasedOnField A3}
  98404,                                  ! Barometric Pressure {Pa}
  4.8,                                    ! Wind Speed {m/s}
  220,                                    ! Wind Direction {deg}
  0,                                      ! Sky Clearness
  0,                                      ! Rain Indicator
  0,                                      ! Snow Indicator
  21,                                     ! Day of Month
  7,                                      ! Month
  SummerDesignDay,                        ! Day Type
  0,                                      ! Daylight Saving Time Indicator
  Wetbulb,                                ! Humidity Indicating Type
  ,                                       ! Humidity Indicating Day Schedule Name
  DefaultMultipliers,                     ! Dry-Bulb Temperature Range Modifier Type
  ,                                       ! Dry-Bulb Temperature Range Modifier Schedule Name
  ASHRAETau,                              ! Solar Model Indicator
  ,                                       ! Beam Solar Day Schedule Name
  ,                                       ! Diffuse Solar Day Schedule Name
  0.48,                                   ! ASHRAE Taub {dimensionless}
  1.954;                                  ! ASHRAE Taud {dimensionless}

OS:ComponentData,
  {c951e426-8b61-4410-9501-34dcaa911793}, ! Handle
  Component Data 1,                       ! Name
  {503a310d-ab4b-4868-a124-16769d067df1}, ! UUID
  {78af8866-0700-4b91-b9c5-df1947c5704b}, ! Version UUID
  1366307459,                             ! Creation Timestamp
  1366307459,                             ! Version Timestamp
  {aa9bf11c-f796-47bd-8cd6-4fa50897d231}; ! Name of Object 1

