
OS:Version,
  {79b59fdf-0640-4b06-aa34-39c1ad841b2c}, ! Handle
  0.9.3;                                  ! Version Identifier

OS:SizingPeriod:DesignDay,
  {f3bc90de-6165-4b91-8dbb-884b8b1fe8eb}, ! Handle
  Barnstable Muni Boa Ann Htg Wind 99.6% Condns WS=>MCDB, ! Name
  0.5,                                    ! Maximum Dry-Bulb Temperature {C}
  0,                                      ! Daily Dry-Bulb Temperature Range {deltaC}
  0.5,                                    ! Humidity Indicating Conditions at Maximum Dry-Bulb {BasedOnField A3}
  101121,                                 ! Barometric Pressure {Pa}
  12.9,                                   ! Wind Speed {m/s}
  310,                                    ! Wind Direction {deg}
  0,                                      ! Sky Clearness
  0,                                      ! Rain Indicator
  0,                                      ! Snow Indicator
  21,                                     ! Day of Month
  1,                                      ! Month
  WinterDesignDay,                        ! Day Type
  0,                                      ! Daylight Saving Time Indicator
  Wetbulb,                                ! Humidity Indicating Type
  ,                                       ! Humidity Indicating Day Schedule Name
  DefaultMultipliers,                     ! Dry-Bulb Temperature Range Modifier Type
  ,                                       ! Dry-Bulb Temperature Range Modifier Schedule Name
  ASHRAEClearSky;                         ! Solar Model Indicator

OS:ComponentData,
  {378a87b5-5899-4f13-b3c1-c5a02f3da923}, ! Handle
  Component Data 1,                       ! Name
  {83aa70ff-daa7-4b13-8eee-88b840b09c80}, ! UUID
  {c0c4b2ef-dd4e-421d-bc37-17b3d62b9559}, ! Version UUID
  1366307776,                             ! Creation Timestamp
  1366307776,                             ! Version Timestamp
  {f3bc90de-6165-4b91-8dbb-884b8b1fe8eb}; ! Name of Object 1

