
OS:Version,
  {f7d36c15-d610-486f-8e19-b31fcc0c46e9}, ! Handle
  0.9.3;                                  ! Version Identifier

OS:SizingPeriod:DesignDay,
  {5c4bfdf8-2106-4603-872a-559af2566754}, ! Handle
  Lancaster Gen Wm Fox Field Ann Clg .4% Condns WB=>MDB, ! Name
  34.5,                                   ! Maximum Dry-Bulb Temperature {C}
  16,                                     ! Daily Dry-Bulb Temperature Range {deltaC}
  20.9,                                   ! Humidity Indicating Conditions at Maximum Dry-Bulb {BasedOnField A3}
  93048,                                  ! Barometric Pressure {Pa}
  6.5,                                    ! Wind Speed {m/s}
  240,                                    ! Wind Direction {deg}
  0,                                      ! Sky Clearness
  0,                                      ! Rain Indicator
  0,                                      ! Snow Indicator
  21,                                     ! Day of Month
  7,                                      ! Month
  SummerDesignDay,                        ! Day Type
  0,                                      ! Daylight Saving Time Indicator
  Wetbulb,                                ! Humidity Indicating Type
  ,                                       ! Humidity Indicating Day Schedule Name
  DefaultMultipliers,                     ! Dry-Bulb Temperature Range Modifier Type
  ,                                       ! Dry-Bulb Temperature Range Modifier Schedule Name
  ASHRAETau,                              ! Solar Model Indicator
  ,                                       ! Beam Solar Day Schedule Name
  ,                                       ! Diffuse Solar Day Schedule Name
  0.431,                                  ! ASHRAE Taub {dimensionless}
  2.057;                                  ! ASHRAE Taud {dimensionless}

OS:ComponentData,
  {e5dbbf7e-8a9c-4002-bd5f-d60a8a39ef75}, ! Handle
  Component Data 1,                       ! Name
  {d8528b00-d247-4902-a299-e7229dd5b6fa}, ! UUID
  {3ab70aff-f800-4d89-b1fb-a5d079578f62}, ! Version UUID
  1366306457,                             ! Creation Timestamp
  1366306457,                             ! Version Timestamp
  {5c4bfdf8-2106-4603-872a-559af2566754}; ! Name of Object 1

