
OS:Version,
  {2b527ac3-4903-48bf-8659-db87f9ab18e4}, ! Handle
  0.9.3;                                  ! Version Identifier

OS:SizingPeriod:DesignDay,
  {ba95dcf7-5ab9-48cd-9189-e6c477585491}, ! Handle
  Lewistown Ann Clg 2% Condns DP=>MDB,    ! Name
  19.2,                                   ! Maximum Dry-Bulb Temperature {C}
  15.7,                                   ! Daily Dry-Bulb Temperature Range {deltaC}
  12.2,                                   ! Humidity Indicating Conditions at Maximum Dry-Bulb {BasedOnField A3}
  86970,                                  ! Barometric Pressure {Pa}
  4.3,                                    ! Wind Speed {m/s}
  0,                                      ! Wind Direction {deg}
  0,                                      ! Sky Clearness
  0,                                      ! Rain Indicator
  0,                                      ! Snow Indicator
  21,                                     ! Day of Month
  7,                                      ! Month
  SummerDesignDay,                        ! Day Type
  0,                                      ! Daylight Saving Time Indicator
  Dewpoint,                               ! Humidity Indicating Type
  ,                                       ! Humidity Indicating Day Schedule Name
  DefaultMultipliers,                     ! Dry-Bulb Temperature Range Modifier Type
  ,                                       ! Dry-Bulb Temperature Range Modifier Schedule Name
  ASHRAETau,                              ! Solar Model Indicator
  ,                                       ! Beam Solar Day Schedule Name
  ,                                       ! Diffuse Solar Day Schedule Name
  0.382,                                  ! ASHRAE Taub {dimensionless}
  2.178;                                  ! ASHRAE Taud {dimensionless}

OS:ComponentData,
  {ebdf34a4-b902-4c04-9f74-7b323333cc39}, ! Handle
  Component Data 1,                       ! Name
  {9f1a036d-ae76-44bc-a558-02b4093016c5}, ! UUID
  {65a687b8-de91-4d97-8439-58feeea95fb8}, ! Version UUID
  1366308818,                             ! Creation Timestamp
  1366308818,                             ! Version Timestamp
  {ba95dcf7-5ab9-48cd-9189-e6c477585491}; ! Name of Object 1

