
OS:Version,
  {41bea789-2807-4827-a005-0823515462cf}, ! Handle
  0.9.3;                                  ! Version Identifier

OS:SizingPeriod:DesignDay,
  {b902345c-84ff-44b3-93ee-df7d4b9a65f9}, ! Handle
  Columbia Ann Clg 2% Condns WB=>MDB,     ! Name
  30.1,                                   ! Maximum Dry-Bulb Temperature {C}
  11,                                     ! Daily Dry-Bulb Temperature Range {deltaC}
  24.7,                                   ! Humidity Indicating Conditions at Maximum Dry-Bulb {BasedOnField A3}
  98076,                                  ! Barometric Pressure {Pa}
  4.4,                                    ! Wind Speed {m/s}
  220,                                    ! Wind Direction {deg}
  0,                                      ! Sky Clearness
  0,                                      ! Rain Indicator
  0,                                      ! Snow Indicator
  21,                                     ! Day of Month
  7,                                      ! Month
  SummerDesignDay,                        ! Day Type
  0,                                      ! Daylight Saving Time Indicator
  Wetbulb,                                ! Humidity Indicating Type
  ,                                       ! Humidity Indicating Day Schedule Name
  DefaultMultipliers,                     ! Dry-Bulb Temperature Range Modifier Type
  ,                                       ! Dry-Bulb Temperature Range Modifier Schedule Name
  ASHRAETau,                              ! Solar Model Indicator
  ,                                       ! Beam Solar Day Schedule Name
  ,                                       ! Diffuse Solar Day Schedule Name
  0.448,                                  ! ASHRAE Taub {dimensionless}
  2.098;                                  ! ASHRAE Taud {dimensionless}

OS:ComponentData,
  {6c4fbaed-9c01-454b-814c-5a37335ae036}, ! Handle
  Component Data 1,                       ! Name
  {80c749bd-5f26-468d-a332-5bcc45dfc1e2}, ! UUID
  {beefc12b-044a-4c9f-8fe0-f8b38680835e}, ! Version UUID
  1366308487,                             ! Creation Timestamp
  1366308487,                             ! Version Timestamp
  {b902345c-84ff-44b3-93ee-df7d4b9a65f9}; ! Name of Object 1

