
OS:Version,
  {489696d1-b006-412d-b0a0-c5f8b0235b00}, ! Handle
  0.9.3;                                  ! Version Identifier

OS:SizingPeriod:DesignDay,
  {03542c4c-f92d-4f65-a4e7-f0621720dce4}, ! Handle
  Albany Dougherty County Ap Ann Htg 99.6% Condns DB, ! Name
  -3.1,                                   ! Maximum Dry-Bulb Temperature {C}
  0,                                      ! Daily Dry-Bulb Temperature Range {deltaC}
  -3.1,                                   ! Humidity Indicating Conditions at Maximum Dry-Bulb {BasedOnField A3}
  100630,                                 ! Barometric Pressure {Pa}
  1.8,                                    ! Wind Speed {m/s}
  330,                                    ! Wind Direction {deg}
  0,                                      ! Sky Clearness
  0,                                      ! Rain Indicator
  0,                                      ! Snow Indicator
  21,                                     ! Day of Month
  1,                                      ! Month
  WinterDesignDay,                        ! Day Type
  0,                                      ! Daylight Saving Time Indicator
  Wetbulb,                                ! Humidity Indicating Type
  ,                                       ! Humidity Indicating Day Schedule Name
  DefaultMultipliers,                     ! Dry-Bulb Temperature Range Modifier Type
  ,                                       ! Dry-Bulb Temperature Range Modifier Schedule Name
  ASHRAEClearSky;                         ! Solar Model Indicator

OS:ComponentData,
  {85cf7a9b-d06a-4565-b2de-91d7c47a1c6c}, ! Handle
  Component Data 1,                       ! Name
  {4ebeb6bb-815b-4ef0-9bd8-57817e37a7c2}, ! UUID
  {a0c51b22-402d-496e-b45e-2812b81a661f}, ! Version UUID
  1366306960,                             ! Creation Timestamp
  1366306960,                             ! Version Timestamp
  {03542c4c-f92d-4f65-a4e7-f0621720dce4}; ! Name of Object 1

