
OS:Version,
  {dd4b164f-401e-4f07-9899-3f59c3c84c3c}, ! Handle
  0.9.3;                                  ! Version Identifier

OS:SizingPeriod:DesignDay,
  {5c0e1253-f143-407c-bcba-1735248e3fe1}, ! Handle
  Carroll Ann Clg 1% Condns Enth=>MDB,    ! Name
  31.2,                                   ! Maximum Dry-Bulb Temperature {C}
  11.4,                                   ! Daily Dry-Bulb Temperature Range {deltaC}
  83700,                                  ! Humidity Indicating Conditions at Maximum Dry-Bulb {BasedOnField A3}
  96900,                                  ! Barometric Pressure {Pa}
  5.7,                                    ! Wind Speed {m/s}
  190,                                    ! Wind Direction {deg}
  0,                                      ! Sky Clearness
  0,                                      ! Rain Indicator
  0,                                      ! Snow Indicator
  21,                                     ! Day of Month
  7,                                      ! Month
  SummerDesignDay,                        ! Day Type
  0,                                      ! Daylight Saving Time Indicator
  Enthalpy,                               ! Humidity Indicating Type
  ,                                       ! Humidity Indicating Day Schedule Name
  DefaultMultipliers,                     ! Dry-Bulb Temperature Range Modifier Type
  ,                                       ! Dry-Bulb Temperature Range Modifier Schedule Name
  ASHRAETau,                              ! Solar Model Indicator
  ,                                       ! Beam Solar Day Schedule Name
  ,                                       ! Diffuse Solar Day Schedule Name
  0.409,                                  ! ASHRAE Taub {dimensionless}
  2.221;                                  ! ASHRAE Taud {dimensionless}

OS:ComponentData,
  {0d943f5d-ac97-454f-8cc7-426da14a76aa}, ! Handle
  Component Data 1,                       ! Name
  {47ea037f-4204-4e92-a0f2-376c5f8c12ef}, ! UUID
  {d6775f39-9e7f-4e43-a3a0-2d2a45afa953}, ! Version UUID
  1366307147,                             ! Creation Timestamp
  1366307147,                             ! Version Timestamp
  {5c0e1253-f143-407c-bcba-1735248e3fe1}; ! Name of Object 1

