
OS:Version,
  {9121c0cb-a453-4291-941f-9216ed2906bc}, ! Handle
  0.9.3;                                  ! Version Identifier

OS:SizingPeriod:DesignDay,
  {4d1f818c-6975-4552-b173-9a534ce0a062}, ! Handle
  Allentown Lehigh Valley Intl Ann Clg .4% Condns WB=>MDB, ! Name
  30.2,                                   ! Maximum Dry-Bulb Temperature {C}
  10.7,                                   ! Daily Dry-Bulb Temperature Range {deltaC}
  24.8,                                   ! Humidity Indicating Conditions at Maximum Dry-Bulb {BasedOnField A3}
  99904,                                  ! Barometric Pressure {Pa}
  4.6,                                    ! Wind Speed {m/s}
  240,                                    ! Wind Direction {deg}
  0,                                      ! Sky Clearness
  0,                                      ! Rain Indicator
  0,                                      ! Snow Indicator
  21,                                     ! Day of Month
  7,                                      ! Month
  SummerDesignDay,                        ! Day Type
  0,                                      ! Daylight Saving Time Indicator
  Wetbulb,                                ! Humidity Indicating Type
  ,                                       ! Humidity Indicating Day Schedule Name
  DefaultMultipliers,                     ! Dry-Bulb Temperature Range Modifier Type
  ,                                       ! Dry-Bulb Temperature Range Modifier Schedule Name
  ASHRAETau,                              ! Solar Model Indicator
  ,                                       ! Beam Solar Day Schedule Name
  ,                                       ! Diffuse Solar Day Schedule Name
  0.504,                                  ! ASHRAE Taub {dimensionless}
  1.885;                                  ! ASHRAE Taud {dimensionless}

OS:ComponentData,
  {b779a7e4-36a5-479a-9955-8d7628d18239}, ! Handle
  Component Data 1,                       ! Name
  {965ced5d-cfcd-4dc0-8782-9000865b748a}, ! UUID
  {0c42715e-9206-4699-9fb9-fde3e4cd5d7a}, ! Version UUID
  1366310132,                             ! Creation Timestamp
  1366310132,                             ! Version Timestamp
  {4d1f818c-6975-4552-b173-9a534ce0a062}; ! Name of Object 1

