
OS:Version,
  {5377db4b-88d7-437c-9045-bd2d984e3b66}, ! Handle
  0.9.3;                                  ! Version Identifier

OS:SizingPeriod:DesignDay,
  {7d124b28-38ad-4e0c-9310-56ac1c02adce}, ! Handle
  Auburn Opelika Apt Ann Clg .4% Condns DB=>MWB, ! Name
  33.9,                                   ! Maximum Dry-Bulb Temperature {C}
  9.6,                                    ! Daily Dry-Bulb Temperature Range {deltaC}
  23,                                     ! Humidity Indicating Conditions at Maximum Dry-Bulb {BasedOnField A3}
  98522,                                  ! Barometric Pressure {Pa}
  3.2,                                    ! Wind Speed {m/s}
  280,                                    ! Wind Direction {deg}
  0,                                      ! Sky Clearness
  0,                                      ! Rain Indicator
  0,                                      ! Snow Indicator
  21,                                     ! Day of Month
  7,                                      ! Month
  SummerDesignDay,                        ! Day Type
  0,                                      ! Daylight Saving Time Indicator
  Wetbulb,                                ! Humidity Indicating Type
  ,                                       ! Humidity Indicating Day Schedule Name
  DefaultMultipliers,                     ! Dry-Bulb Temperature Range Modifier Type
  ,                                       ! Dry-Bulb Temperature Range Modifier Schedule Name
  ASHRAETau,                              ! Solar Model Indicator
  ,                                       ! Beam Solar Day Schedule Name
  ,                                       ! Diffuse Solar Day Schedule Name
  0.556,                                  ! ASHRAE Taub {dimensionless}
  1.789;                                  ! ASHRAE Taud {dimensionless}

OS:ComponentData,
  {a722b652-5056-4891-82cf-ea870022ddb4}, ! Handle
  Component Data 1,                       ! Name
  {875d490d-506b-4053-94b9-0f491724e2f1}, ! UUID
  {774fa094-f4f0-4558-b0dc-dee697f9045e}, ! Version UUID
  1366305637,                             ! Creation Timestamp
  1366305637,                             ! Version Timestamp
  {7d124b28-38ad-4e0c-9310-56ac1c02adce}; ! Name of Object 1

