
OS:Version,
  {87458f71-37de-4fc2-a55f-15e161112c18}, ! Handle
  0.9.3;                                  ! Version Identifier

OS:SizingPeriod:DesignDay,
  {62c6ce61-6bee-4b4f-b2f0-2b14c1c0dc07}, ! Handle
  Buffalo Niagara Intl Ap Ann Hum_n 99.6% Condns DP=>MCDB, ! Name
  -15.5,                                  ! Maximum Dry-Bulb Temperature {C}
  0,                                      ! Daily Dry-Bulb Temperature Range {deltaC}
  -20.4,                                  ! Humidity Indicating Conditions at Maximum Dry-Bulb {BasedOnField A3}
  98769,                                  ! Barometric Pressure {Pa}
  5.1,                                    ! Wind Speed {m/s}
  270,                                    ! Wind Direction {deg}
  0,                                      ! Sky Clearness
  0,                                      ! Rain Indicator
  0,                                      ! Snow Indicator
  21,                                     ! Day of Month
  1,                                      ! Month
  WinterDesignDay,                        ! Day Type
  0,                                      ! Daylight Saving Time Indicator
  Dewpoint,                               ! Humidity Indicating Type
  ,                                       ! Humidity Indicating Day Schedule Name
  DefaultMultipliers,                     ! Dry-Bulb Temperature Range Modifier Type
  ,                                       ! Dry-Bulb Temperature Range Modifier Schedule Name
  ASHRAEClearSky;                         ! Solar Model Indicator

OS:ComponentData,
  {df92c29d-34c5-4284-9352-ee88d4ae8a09}, ! Handle
  Component Data 1,                       ! Name
  {8a384b13-7646-4114-88e6-82a87567644e}, ! UUID
  {aeb62427-d95f-4676-8015-257950336335}, ! Version UUID
  1366309607,                             ! Creation Timestamp
  1366309607,                             ! Version Timestamp
  {62c6ce61-6bee-4b4f-b2f0-2b14c1c0dc07}; ! Name of Object 1

