
OS:Version,
  {dc66aeab-3990-4411-a147-6c2f98edd0b0}, ! Handle
  0.9.3;                                  ! Version Identifier

OS:SizingPeriod:DesignDay,
  {cf7891ec-7165-48f1-8831-eb22c36bb3c1}, ! Handle
  Lander Hunt Field Ann Clg .4% Condns WB=>MDB, ! Name
  28.4,                                   ! Maximum Dry-Bulb Temperature {C}
  15.6,                                   ! Daily Dry-Bulb Temperature Range {deltaC}
  16.8,                                   ! Humidity Indicating Conditions at Maximum Dry-Bulb {BasedOnField A3}
  82562,                                  ! Barometric Pressure {Pa}
  4.2,                                    ! Wind Speed {m/s}
  220,                                    ! Wind Direction {deg}
  0,                                      ! Sky Clearness
  0,                                      ! Rain Indicator
  0,                                      ! Snow Indicator
  21,                                     ! Day of Month
  7,                                      ! Month
  SummerDesignDay,                        ! Day Type
  0,                                      ! Daylight Saving Time Indicator
  Wetbulb,                                ! Humidity Indicating Type
  ,                                       ! Humidity Indicating Day Schedule Name
  DefaultMultipliers,                     ! Dry-Bulb Temperature Range Modifier Type
  ,                                       ! Dry-Bulb Temperature Range Modifier Schedule Name
  ASHRAETau,                              ! Solar Model Indicator
  ,                                       ! Beam Solar Day Schedule Name
  ,                                       ! Diffuse Solar Day Schedule Name
  0.405,                                  ! ASHRAE Taub {dimensionless}
  2.036;                                  ! ASHRAE Taud {dimensionless}

OS:ComponentData,
  {ced45da9-249c-4523-8393-0edd94e93a73}, ! Handle
  Component Data 1,                       ! Name
  {c2b52c0f-577b-4021-9ee6-9abb83b914e4}, ! UUID
  {9a23ba74-bb4c-4f80-823f-c4ae2c6f4bea}, ! Version UUID
  1366311749,                             ! Creation Timestamp
  1366311749,                             ! Version Timestamp
  {cf7891ec-7165-48f1-8831-eb22c36bb3c1}; ! Name of Object 1

