
OS:Version,
  {d1e59d33-1f9c-4add-b4b9-54c934901e35}, ! Handle
  0.9.3;                                  ! Version Identifier

OS:SizingPeriod:DesignDay,
  {d874b48c-3933-45b6-a8b3-027e2e06bd14}, ! Handle
  Baker Municipal Ap Ann Clg 2% Condns DB=>MWB, ! Name
  30.1,                                   ! Maximum Dry-Bulb Temperature {C}
  19.6,                                   ! Daily Dry-Bulb Temperature Range {deltaC}
  16.1,                                   ! Humidity Indicating Conditions at Maximum Dry-Bulb {BasedOnField A3}
  89581,                                  ! Barometric Pressure {Pa}
  3.9,                                    ! Wind Speed {m/s}
  320,                                    ! Wind Direction {deg}
  0,                                      ! Sky Clearness
  0,                                      ! Rain Indicator
  0,                                      ! Snow Indicator
  21,                                     ! Day of Month
  7,                                      ! Month
  SummerDesignDay,                        ! Day Type
  0,                                      ! Daylight Saving Time Indicator
  Wetbulb,                                ! Humidity Indicating Type
  ,                                       ! Humidity Indicating Day Schedule Name
  DefaultMultipliers,                     ! Dry-Bulb Temperature Range Modifier Type
  ,                                       ! Dry-Bulb Temperature Range Modifier Schedule Name
  ASHRAETau,                              ! Solar Model Indicator
  ,                                       ! Beam Solar Day Schedule Name
  ,                                       ! Diffuse Solar Day Schedule Name
  0.363,                                  ! ASHRAE Taub {dimensionless}
  2.324;                                  ! ASHRAE Taud {dimensionless}

OS:ComponentData,
  {fe6866f9-3adb-4dfb-9157-8f31f9d4bda0}, ! Handle
  Component Data 1,                       ! Name
  {704a4303-933b-4f88-983e-f185c7524a78}, ! UUID
  {31a4dbeb-8fd6-4bed-92dc-05218332bfce}, ! Version UUID
  1366309986,                             ! Creation Timestamp
  1366309986,                             ! Version Timestamp
  {d874b48c-3933-45b6-a8b3-027e2e06bd14}; ! Name of Object 1

