
OS:Version,
  {9649d616-c5b8-43de-bc1b-befc6a3a124d}, ! Handle
  0.9.3;                                  ! Version Identifier

OS:SizingPeriod:DesignDay,
  {78f5e34e-1bfa-47e6-a01a-6b903d49bb55}, ! Handle
  Dillingham  Amos Ann Clg 2% Condns WB=>MDB, ! Name
  16.8,                                   ! Maximum Dry-Bulb Temperature {C}
  7.2,                                    ! Daily Dry-Bulb Temperature Range {deltaC}
  13.2,                                   ! Humidity Indicating Conditions at Maximum Dry-Bulb {BasedOnField A3}
  100977,                                 ! Barometric Pressure {Pa}
  4.1,                                    ! Wind Speed {m/s}
  180,                                    ! Wind Direction {deg}
  0,                                      ! Sky Clearness
  0,                                      ! Rain Indicator
  0,                                      ! Snow Indicator
  21,                                     ! Day of Month
  7,                                      ! Month
  SummerDesignDay,                        ! Day Type
  0,                                      ! Daylight Saving Time Indicator
  Wetbulb,                                ! Humidity Indicating Type
  ,                                       ! Humidity Indicating Day Schedule Name
  DefaultMultipliers,                     ! Dry-Bulb Temperature Range Modifier Type
  ,                                       ! Dry-Bulb Temperature Range Modifier Schedule Name
  ASHRAETau,                              ! Solar Model Indicator
  ,                                       ! Beam Solar Day Schedule Name
  ,                                       ! Diffuse Solar Day Schedule Name
  0.382,                                  ! ASHRAE Taub {dimensionless}
  2.243;                                  ! ASHRAE Taud {dimensionless}

OS:ComponentData,
  {ebdff5df-bf65-423a-93c8-4e152ac46ff7}, ! Handle
  Component Data 1,                       ! Name
  {2d4c4000-12b7-4e2d-8cf3-f6f77d987735}, ! UUID
  {532adc86-e04e-4e26-937b-8e97fb905a9f}, ! Version UUID
  1366305235,                             ! Creation Timestamp
  1366305235,                             ! Version Timestamp
  {78f5e34e-1bfa-47e6-a01a-6b903d49bb55}; ! Name of Object 1

