
OS:Version,
  {2d87b05b-ea5c-4178-8e1f-950001d7f73e}, ! Handle
  0.9.3;                                  ! Version Identifier

OS:SizingPeriod:DesignDay,
  {a8884915-5f73-4c0b-a810-51edeca8a49b}, ! Handle
  ASHEVILLE Ann Htg Wind 99.6% Condns WS=>MCDB, ! Name
  -1.7,                                   ! Maximum Dry-Bulb Temperature {C}
  0,                                      ! Daily Dry-Bulb Temperature Range {deltaC}
  -1.7,                                   ! Humidity Indicating Conditions at Maximum Dry-Bulb {BasedOnField A3}
  93632,                                  ! Barometric Pressure {Pa}
  12.5,                                   ! Wind Speed {m/s}
  340,                                    ! Wind Direction {deg}
  0,                                      ! Sky Clearness
  0,                                      ! Rain Indicator
  0,                                      ! Snow Indicator
  21,                                     ! Day of Month
  1,                                      ! Month
  WinterDesignDay,                        ! Day Type
  0,                                      ! Daylight Saving Time Indicator
  Wetbulb,                                ! Humidity Indicating Type
  ,                                       ! Humidity Indicating Day Schedule Name
  DefaultMultipliers,                     ! Dry-Bulb Temperature Range Modifier Type
  ,                                       ! Dry-Bulb Temperature Range Modifier Schedule Name
  ASHRAEClearSky;                         ! Solar Model Indicator

OS:ComponentData,
  {e235f78f-d2fd-4139-9716-a5e6b4e335de}, ! Handle
  Component Data 1,                       ! Name
  {7aab723a-dbcf-44ba-b465-98ea06b88929}, ! UUID
  {3fcbe137-45c2-47b3-add1-472098df6b9d}, ! Version UUID
  1366308859,                             ! Creation Timestamp
  1366308859,                             ! Version Timestamp
  {a8884915-5f73-4c0b-a810-51edeca8a49b}; ! Name of Object 1

