
OS:Version,
  {69155bf8-977f-48a0-96ce-24ecb8119c14}, ! Handle
  0.9.3;                                  ! Version Identifier

OS:SizingPeriod:DesignDay,
  {31dceba9-bae2-4967-91d1-55c9bbb9daa8}, ! Handle
  Laredo AFB Ann Clg 2% Condns Enth=>MDB, ! Name
  31.7,                                   ! Maximum Dry-Bulb Temperature {C}
  11.6,                                   ! Daily Dry-Bulb Temperature Range {deltaC}
  77900,                                  ! Humidity Indicating Conditions at Maximum Dry-Bulb {BasedOnField A3}
  99512,                                  ! Barometric Pressure {Pa}
  6,                                      ! Wind Speed {m/s}
  130,                                    ! Wind Direction {deg}
  0,                                      ! Sky Clearness
  0,                                      ! Rain Indicator
  0,                                      ! Snow Indicator
  21,                                     ! Day of Month
  8,                                      ! Month
  SummerDesignDay,                        ! Day Type
  0,                                      ! Daylight Saving Time Indicator
  Enthalpy,                               ! Humidity Indicating Type
  ,                                       ! Humidity Indicating Day Schedule Name
  DefaultMultipliers,                     ! Dry-Bulb Temperature Range Modifier Type
  ,                                       ! Dry-Bulb Temperature Range Modifier Schedule Name
  ASHRAETau,                              ! Solar Model Indicator
  ,                                       ! Beam Solar Day Schedule Name
  ,                                       ! Diffuse Solar Day Schedule Name
  0.469,                                  ! ASHRAE Taub {dimensionless}
  2.06;                                   ! ASHRAE Taud {dimensionless}

