
OS:Version,
  {5452f8a5-ca61-43f6-a098-a9b7cdebb590}, ! Handle
  0.9.3;                                  ! Version Identifier

OS:SizingPeriod:DesignDay,
  {19790457-6a0f-4402-80aa-51b6ac08e755}, ! Handle
  Laredo AFB Ann Clg 2% Condns Enth=>MDB, ! Name
  31.7,                                   ! Maximum Dry-Bulb Temperature {C}
  11.6,                                   ! Daily Dry-Bulb Temperature Range {deltaC}
  77900,                                  ! Humidity Indicating Conditions at Maximum Dry-Bulb {BasedOnField A3}
  99512,                                  ! Barometric Pressure {Pa}
  6,                                      ! Wind Speed {m/s}
  130,                                    ! Wind Direction {deg}
  0,                                      ! Sky Clearness
  0,                                      ! Rain Indicator
  0,                                      ! Snow Indicator
  21,                                     ! Day of Month
  8,                                      ! Month
  SummerDesignDay,                        ! Day Type
  0,                                      ! Daylight Saving Time Indicator
  Enthalpy,                               ! Humidity Indicating Type
  ,                                       ! Humidity Indicating Day Schedule Name
  DefaultMultipliers,                     ! Dry-Bulb Temperature Range Modifier Type
  ,                                       ! Dry-Bulb Temperature Range Modifier Schedule Name
  ASHRAETau,                              ! Solar Model Indicator
  ,                                       ! Beam Solar Day Schedule Name
  ,                                       ! Diffuse Solar Day Schedule Name
  0.469,                                  ! ASHRAE Taub {dimensionless}
  2.06;                                   ! ASHRAE Taud {dimensionless}

OS:ComponentData,
  {b94b989e-40bf-439c-a627-abfde18b08f3}, ! Handle
  Component Data 1,                       ! Name
  {8ffdee8c-c0f8-4046-9792-f20373f8c2a6}, ! UUID
  {3c6ce4fa-2205-48a4-b6e0-bbba847a5b5f}, ! Version UUID
  1366310781,                             ! Creation Timestamp
  1366310781,                             ! Version Timestamp
  {19790457-6a0f-4402-80aa-51b6ac08e755}; ! Name of Object 1

