
OS:Version,
  {0f4f3ee9-ce66-454b-8e89-8a52d89bdd50}, ! Handle
  0.9.3;                                  ! Version Identifier

OS:SizingPeriod:DesignDay,
  {46b263c7-4c31-4bfd-895f-8938044ff6b9}, ! Handle
  Idaho Falls Fanning Field Ann Clg 2% Condns DB=>MWB, ! Name
  30.2,                                   ! Maximum Dry-Bulb Temperature {C}
  18.9,                                   ! Daily Dry-Bulb Temperature Range {deltaC}
  15.4,                                   ! Humidity Indicating Conditions at Maximum Dry-Bulb {BasedOnField A3}
  85170,                                  ! Barometric Pressure {Pa}
  4.8,                                    ! Wind Speed {m/s}
  200,                                    ! Wind Direction {deg}
  0,                                      ! Sky Clearness
  0,                                      ! Rain Indicator
  0,                                      ! Snow Indicator
  21,                                     ! Day of Month
  7,                                      ! Month
  SummerDesignDay,                        ! Day Type
  0,                                      ! Daylight Saving Time Indicator
  Wetbulb,                                ! Humidity Indicating Type
  ,                                       ! Humidity Indicating Day Schedule Name
  DefaultMultipliers,                     ! Dry-Bulb Temperature Range Modifier Type
  ,                                       ! Dry-Bulb Temperature Range Modifier Schedule Name
  ASHRAETau,                              ! Solar Model Indicator
  ,                                       ! Beam Solar Day Schedule Name
  ,                                       ! Diffuse Solar Day Schedule Name
  0.398,                                  ! ASHRAE Taub {dimensionless}
  2.067;                                  ! ASHRAE Taud {dimensionless}

OS:ComponentData,
  {e0fd1d2b-4e42-4341-97cb-1acdb2609e2c}, ! Handle
  Component Data 1,                       ! Name
  {d4e29001-060d-4961-bdaa-14b24c304a51}, ! UUID
  {f2021cc8-340c-4c45-889a-1e3c998cfb38}, ! Version UUID
  1366307285,                             ! Creation Timestamp
  1366307285,                             ! Version Timestamp
  {46b263c7-4c31-4bfd-895f-8938044ff6b9}; ! Name of Object 1

