
OS:Version,
  {3131c91b-ea06-4cb2-8377-b453532115b8}, ! Handle
  0.9.3;                                  ! Version Identifier

OS:SizingPeriod:DesignDay,
  {4bb0d4cf-4fe9-4bd6-bfad-fce03c6ea694}, ! Handle
  Dayton International Airport Ann Clg .4% Condns WB=>MDB, ! Name
  30.1,                                   ! Maximum Dry-Bulb Temperature {C}
  10.3,                                   ! Daily Dry-Bulb Temperature Range {deltaC}
  24.7,                                   ! Humidity Indicating Conditions at Maximum Dry-Bulb {BasedOnField A3}
  97714,                                  ! Barometric Pressure {Pa}
  4.7,                                    ! Wind Speed {m/s}
  240,                                    ! Wind Direction {deg}
  0,                                      ! Sky Clearness
  0,                                      ! Rain Indicator
  0,                                      ! Snow Indicator
  21,                                     ! Day of Month
  7,                                      ! Month
  SummerDesignDay,                        ! Day Type
  0,                                      ! Daylight Saving Time Indicator
  Wetbulb,                                ! Humidity Indicating Type
  ,                                       ! Humidity Indicating Day Schedule Name
  DefaultMultipliers,                     ! Dry-Bulb Temperature Range Modifier Type
  ,                                       ! Dry-Bulb Temperature Range Modifier Schedule Name
  ASHRAETau,                              ! Solar Model Indicator
  ,                                       ! Beam Solar Day Schedule Name
  ,                                       ! Diffuse Solar Day Schedule Name
  0.478,                                  ! ASHRAE Taub {dimensionless}
  1.955;                                  ! ASHRAE Taud {dimensionless}

OS:ComponentData,
  {62b17ae0-d1c4-4b24-9094-66421826d578}, ! Handle
  Component Data 1,                       ! Name
  {0489d674-a5f6-402d-8e83-be5eaa0cf090}, ! UUID
  {3ad3b69f-8d7f-4e7a-9634-e2813cd087e7}, ! Version UUID
  1366309821,                             ! Creation Timestamp
  1366309821,                             ! Version Timestamp
  {4bb0d4cf-4fe9-4bd6-bfad-fce03c6ea694}; ! Name of Object 1

