
OS:Version,
  {3acf68ff-7b8c-4535-b48d-bc926a5107c5}, ! Handle
  0.9.3;                                  ! Version Identifier

OS:SizingPeriod:DesignDay,
  {73788f6b-9cda-4bb2-99cd-b4bee1368c52}, ! Handle
  Howell Ann Hum_n 99% Condns DP=>MCDB,   ! Name
  -12.9,                                  ! Maximum Dry-Bulb Temperature {C}
  0,                                      ! Daily Dry-Bulb Temperature Range {deltaC}
  -18.9,                                  ! Humidity Indicating Conditions at Maximum Dry-Bulb {BasedOnField A3}
  97854,                                  ! Barometric Pressure {Pa}
  2.2,                                    ! Wind Speed {m/s}
  260,                                    ! Wind Direction {deg}
  0,                                      ! Sky Clearness
  0,                                      ! Rain Indicator
  0,                                      ! Snow Indicator
  21,                                     ! Day of Month
  1,                                      ! Month
  WinterDesignDay,                        ! Day Type
  0,                                      ! Daylight Saving Time Indicator
  Dewpoint,                               ! Humidity Indicating Type
  ,                                       ! Humidity Indicating Day Schedule Name
  DefaultMultipliers,                     ! Dry-Bulb Temperature Range Modifier Type
  ,                                       ! Dry-Bulb Temperature Range Modifier Schedule Name
  ASHRAEClearSky;                         ! Solar Model Indicator

OS:ComponentData,
  {346a63dc-98f9-4a1f-9a0a-9ce936a8257c}, ! Handle
  Component Data 1,                       ! Name
  {31735dda-2bcd-4fe8-a989-38997ba33bdd}, ! UUID
  {382e0d7c-06a1-4395-9654-ec87175b459a}, ! Version UUID
  1366308033,                             ! Creation Timestamp
  1366308033,                             ! Version Timestamp
  {73788f6b-9cda-4bb2-99cd-b4bee1368c52}; ! Name of Object 1

