
OS:Version,
  {4e8a681a-fa76-4d66-ab6f-700735f0a45a}, ! Handle
  0.9.3;                                  ! Version Identifier

OS:SizingPeriod:DesignDay,
  {15d40f3c-9da5-4b0a-bf5b-96de50694b42}, ! Handle
  Brookings  Awos Ann Hum_n 99% Condns DP=>MCDB, ! Name
  -22.5,                                  ! Maximum Dry-Bulb Temperature {C}
  0,                                      ! Daily Dry-Bulb Temperature Range {deltaC}
  -29.2,                                  ! Humidity Indicating Conditions at Maximum Dry-Bulb {BasedOnField A3}
  95438,                                  ! Barometric Pressure {Pa}
  3.3,                                    ! Wind Speed {m/s}
  320,                                    ! Wind Direction {deg}
  0,                                      ! Sky Clearness
  0,                                      ! Rain Indicator
  0,                                      ! Snow Indicator
  21,                                     ! Day of Month
  1,                                      ! Month
  WinterDesignDay,                        ! Day Type
  0,                                      ! Daylight Saving Time Indicator
  Dewpoint,                               ! Humidity Indicating Type
  ,                                       ! Humidity Indicating Day Schedule Name
  DefaultMultipliers,                     ! Dry-Bulb Temperature Range Modifier Type
  ,                                       ! Dry-Bulb Temperature Range Modifier Schedule Name
  ASHRAEClearSky;                         ! Solar Model Indicator

OS:ComponentData,
  {87da36fe-556a-4473-a83e-4a3aed3e823d}, ! Handle
  Component Data 1,                       ! Name
  {7f450b31-7d0c-48cb-9631-a999719c2d5e}, ! UUID
  {2110e771-b1ae-46bd-9c13-3483d37a3fa7}, ! Version UUID
  1366310389,                             ! Creation Timestamp
  1366310389,                             ! Version Timestamp
  {15d40f3c-9da5-4b0a-bf5b-96de50694b42}; ! Name of Object 1

