
OS:Version,
  {b1a2b2c5-3e4f-4dc4-925a-fdde5c7485f6}, ! Handle
  0.9.3;                                  ! Version Identifier

OS:SizingPeriod:DesignDay,
  {d513e445-1ae9-4cf3-b09f-9b27c580879b}, ! Handle
  Eagle Ann Clg 2% Condns Enth=>MDB,      ! Name
  23.8,                                   ! Maximum Dry-Bulb Temperature {C}
  19,                                     ! Daily Dry-Bulb Temperature Range {deltaC}
  47400,                                  ! Humidity Indicating Conditions at Maximum Dry-Bulb {BasedOnField A3}
  79564,                                  ! Barometric Pressure {Pa}
  4.9,                                    ! Wind Speed {m/s}
  240,                                    ! Wind Direction {deg}
  0,                                      ! Sky Clearness
  0,                                      ! Rain Indicator
  0,                                      ! Snow Indicator
  21,                                     ! Day of Month
  7,                                      ! Month
  SummerDesignDay,                        ! Day Type
  0,                                      ! Daylight Saving Time Indicator
  Enthalpy,                               ! Humidity Indicating Type
  ,                                       ! Humidity Indicating Day Schedule Name
  DefaultMultipliers,                     ! Dry-Bulb Temperature Range Modifier Type
  ,                                       ! Dry-Bulb Temperature Range Modifier Schedule Name
  ASHRAETau,                              ! Solar Model Indicator
  ,                                       ! Beam Solar Day Schedule Name
  ,                                       ! Diffuse Solar Day Schedule Name
  0.4,                                    ! ASHRAE Taub {dimensionless}
  2.165;                                  ! ASHRAE Taud {dimensionless}

OS:ComponentData,
  {e55c15ff-621d-43a4-a6ac-95d81cdefd99}, ! Handle
  Component Data 1,                       ! Name
  {38b54e7f-8d92-4ff5-b8c6-231723961dcc}, ! UUID
  {3b51099a-1850-45a5-a061-a6e23108e9f7}, ! Version UUID
  1366306686,                             ! Creation Timestamp
  1366306686,                             ! Version Timestamp
  {d513e445-1ae9-4cf3-b09f-9b27c580879b}; ! Name of Object 1

