
OS:Version,
  {72e63962-0011-4309-a647-f4d860be7391}, ! Handle
  0.9.3;                                  ! Version Identifier

OS:SizingPeriod:DesignDay,
  {6b2a3092-8c6f-4571-8dcd-0233e18a12e0}, ! Handle
  Hibbing Chisholm Hibbing Ap Ann Hum_n 99.6% Condns DP=>MCDB, ! Name
  -30.9,                                  ! Maximum Dry-Bulb Temperature {C}
  0,                                      ! Daily Dry-Bulb Temperature Range {deltaC}
  -33.5,                                  ! Humidity Indicating Conditions at Maximum Dry-Bulb {BasedOnField A3}
  96484,                                  ! Barometric Pressure {Pa}
  2.1,                                    ! Wind Speed {m/s}
  320,                                    ! Wind Direction {deg}
  0,                                      ! Sky Clearness
  0,                                      ! Rain Indicator
  0,                                      ! Snow Indicator
  21,                                     ! Day of Month
  1,                                      ! Month
  WinterDesignDay,                        ! Day Type
  0,                                      ! Daylight Saving Time Indicator
  Dewpoint,                               ! Humidity Indicating Type
  ,                                       ! Humidity Indicating Day Schedule Name
  DefaultMultipliers,                     ! Dry-Bulb Temperature Range Modifier Type
  ,                                       ! Dry-Bulb Temperature Range Modifier Schedule Name
  ASHRAEClearSky;                         ! Solar Model Indicator

OS:ComponentData,
  {cfe3eea9-bc4c-496d-9980-3b537c030867}, ! Handle
  Component Data 1,                       ! Name
  {f9ee03b0-b376-4125-9cd9-87e5f229393d}, ! UUID
  {6d6f0dad-9461-4d71-9c46-dca14894d89d}, ! Version UUID
  1366308254,                             ! Creation Timestamp
  1366308254,                             ! Version Timestamp
  {6b2a3092-8c6f-4571-8dcd-0233e18a12e0}; ! Name of Object 1

