
OS:Version,
  {597377b0-aa7b-4fff-b3bb-c1b475a0141a}, ! Handle
  0.9.3;                                  ! Version Identifier

OS:SizingPeriod:DesignDay,
  {4eb0b72c-ceec-4d61-8f3a-4415f1f90a07}, ! Handle
  Charlotte Ann Htg 99.6% Condns DB,      ! Name
  -6.4,                                   ! Maximum Dry-Bulb Temperature {C}
  0,                                      ! Daily Dry-Bulb Temperature Range {deltaC}
  -6.4,                                   ! Humidity Indicating Conditions at Maximum Dry-Bulb {BasedOnField A3}
  98545,                                  ! Barometric Pressure {Pa}
  2.7,                                    ! Wind Speed {m/s}
  20,                                     ! Wind Direction {deg}
  0,                                      ! Sky Clearness
  0,                                      ! Rain Indicator
  0,                                      ! Snow Indicator
  21,                                     ! Day of Month
  1,                                      ! Month
  WinterDesignDay,                        ! Day Type
  0,                                      ! Daylight Saving Time Indicator
  Wetbulb,                                ! Humidity Indicating Type
  ,                                       ! Humidity Indicating Day Schedule Name
  DefaultMultipliers,                     ! Dry-Bulb Temperature Range Modifier Type
  ,                                       ! Dry-Bulb Temperature Range Modifier Schedule Name
  ASHRAEClearSky;                         ! Solar Model Indicator

OS:ComponentData,
  {b7a4e7ac-14ad-4004-9ed3-daee963edd6e}, ! Handle
  Component Data 1,                       ! Name
  {139a7218-889e-4d51-b186-5f09170f5449}, ! UUID
  {34dff32e-1c37-4625-8f55-6362e1b82e5c}, ! Version UUID
  1366308883,                             ! Creation Timestamp
  1366308883,                             ! Version Timestamp
  {4eb0b72c-ceec-4d61-8f3a-4415f1f90a07}; ! Name of Object 1

