
OS:Version,
  {264bf8c4-6864-4b64-93c2-b2d7eef2df7e}, ! Handle
  0.9.3;                                  ! Version Identifier

OS:SizingPeriod:DesignDay,
  {48234091-4053-4c85-818f-70c6b81f135f}, ! Handle
  Boston Ann Clg 1% Condns WB=>MDB,       ! Name
  28.6,                                   ! Maximum Dry-Bulb Temperature {C}
  8.4,                                    ! Daily Dry-Bulb Temperature Range {deltaC}
  23.7,                                   ! Humidity Indicating Conditions at Maximum Dry-Bulb {BasedOnField A3}
  101253,                                 ! Barometric Pressure {Pa}
  6.3,                                    ! Wind Speed {m/s}
  270,                                    ! Wind Direction {deg}
  0,                                      ! Sky Clearness
  0,                                      ! Rain Indicator
  0,                                      ! Snow Indicator
  21,                                     ! Day of Month
  7,                                      ! Month
  SummerDesignDay,                        ! Day Type
  0,                                      ! Daylight Saving Time Indicator
  Wetbulb,                                ! Humidity Indicating Type
  ,                                       ! Humidity Indicating Day Schedule Name
  DefaultMultipliers,                     ! Dry-Bulb Temperature Range Modifier Type
  ,                                       ! Dry-Bulb Temperature Range Modifier Schedule Name
  ASHRAETau,                              ! Solar Model Indicator
  ,                                       ! Beam Solar Day Schedule Name
  ,                                       ! Diffuse Solar Day Schedule Name
  0.488,                                  ! ASHRAE Taub {dimensionless}
  1.95;                                   ! ASHRAE Taud {dimensionless}

OS:ComponentData,
  {54748749-bacf-406b-b618-3f083dc0ef29}, ! Handle
  Component Data 1,                       ! Name
  {3c07b726-5ade-43ad-9f36-cadb9a99cab0}, ! UUID
  {e620b8a8-f05e-4e2a-ae45-8dd82e3bace8}, ! Version UUID
  1366307789,                             ! Creation Timestamp
  1366307789,                             ! Version Timestamp
  {48234091-4053-4c85-818f-70c6b81f135f}; ! Name of Object 1

