
OS:Version,
  {9f770275-895d-45ad-9535-5a1f1727e7f6}, ! Handle
  0.9.3;                                  ! Version Identifier

OS:SizingPeriod:DesignDay,
  {398e757b-5bad-4ffa-8f18-51c8aeace0fc}, ! Handle
  Gunnison Co   Awos Ann Clg 2% Condns Enth=>MDB, ! Name
  21.2,                                   ! Maximum Dry-Bulb Temperature {C}
  17.9,                                   ! Daily Dry-Bulb Temperature Range {deltaC}
  42700,                                  ! Humidity Indicating Conditions at Maximum Dry-Bulb {BasedOnField A3}
  76206,                                  ! Barometric Pressure {Pa}
  4.4,                                    ! Wind Speed {m/s}
  250,                                    ! Wind Direction {deg}
  0,                                      ! Sky Clearness
  0,                                      ! Rain Indicator
  0,                                      ! Snow Indicator
  21,                                     ! Day of Month
  7,                                      ! Month
  SummerDesignDay,                        ! Day Type
  0,                                      ! Daylight Saving Time Indicator
  Enthalpy,                               ! Humidity Indicating Type
  ,                                       ! Humidity Indicating Day Schedule Name
  DefaultMultipliers,                     ! Dry-Bulb Temperature Range Modifier Type
  ,                                       ! Dry-Bulb Temperature Range Modifier Schedule Name
  ASHRAETau,                              ! Solar Model Indicator
  ,                                       ! Beam Solar Day Schedule Name
  ,                                       ! Diffuse Solar Day Schedule Name
  0.384,                                  ! ASHRAE Taub {dimensionless}
  2.179;                                  ! ASHRAE Taud {dimensionless}

OS:ComponentData,
  {51b77f13-2bff-4115-86f1-90cedc1d1567}, ! Handle
  Component Data 1,                       ! Name
  {ca107c13-0ab2-4f6d-908f-1b1f11ba5a8a}, ! UUID
  {4e54ad90-e79b-424c-97fb-fd45a663fa9d}, ! Version UUID
  1366306710,                             ! Creation Timestamp
  1366306710,                             ! Version Timestamp
  {398e757b-5bad-4ffa-8f18-51c8aeace0fc}; ! Name of Object 1

