
OS:Version,
  {c9ecd515-fa7a-449b-a373-7187d33d4fd0}, ! Handle
  0.9.3;                                  ! Version Identifier

OS:SizingPeriod:DesignDay,
  {7e7ed237-4537-4286-a31d-29c6c46a431f}, ! Handle
  Burlington Municipal Ap Ann Clg 2% Condns DB=>MWB, ! Name
  31,                                     ! Maximum Dry-Bulb Temperature {C}
  10.3,                                   ! Daily Dry-Bulb Temperature Range {deltaC}
  23.4,                                   ! Humidity Indicating Conditions at Maximum Dry-Bulb {BasedOnField A3}
  98816,                                  ! Barometric Pressure {Pa}
  4.5,                                    ! Wind Speed {m/s}
  200,                                    ! Wind Direction {deg}
  0,                                      ! Sky Clearness
  0,                                      ! Rain Indicator
  0,                                      ! Snow Indicator
  21,                                     ! Day of Month
  7,                                      ! Month
  SummerDesignDay,                        ! Day Type
  0,                                      ! Daylight Saving Time Indicator
  Wetbulb,                                ! Humidity Indicating Type
  ,                                       ! Humidity Indicating Day Schedule Name
  DefaultMultipliers,                     ! Dry-Bulb Temperature Range Modifier Type
  ,                                       ! Dry-Bulb Temperature Range Modifier Schedule Name
  ASHRAETau,                              ! Solar Model Indicator
  ,                                       ! Beam Solar Day Schedule Name
  ,                                       ! Diffuse Solar Day Schedule Name
  0.45,                                   ! ASHRAE Taub {dimensionless}
  2.07;                                   ! ASHRAE Taud {dimensionless}

OS:ComponentData,
  {c9e4f35b-cc43-46b7-b533-fc6b0e0be51d}, ! Handle
  Component Data 1,                       ! Name
  {3f691ea8-b1c1-43ba-b40d-4bb0fa333f17}, ! UUID
  {a8ef31a2-41b9-4891-867a-a2ffdc599bd2}, ! Version UUID
  1366307143,                             ! Creation Timestamp
  1366307143,                             ! Version Timestamp
  {7e7ed237-4537-4286-a31d-29c6c46a431f}; ! Name of Object 1

