
OS:Version,
  {48268e36-1146-48d3-83b5-65ea4b149e40}, ! Handle
  0.9.3;                                  ! Version Identifier

OS:SizingPeriod:DesignDay,
  {2de955e1-2dcd-4304-98a3-0bd25f69f182}, ! Handle
  Dayton Wright Patterson Afb Ann Clg .4% Condns DB=>MWB, ! Name
  33,                                     ! Maximum Dry-Bulb Temperature {C}
  11,                                     ! Daily Dry-Bulb Temperature Range {deltaC}
  23.6,                                   ! Humidity Indicating Conditions at Maximum Dry-Bulb {BasedOnField A3}
  98358,                                  ! Barometric Pressure {Pa}
  3.9,                                    ! Wind Speed {m/s}
  240,                                    ! Wind Direction {deg}
  0,                                      ! Sky Clearness
  0,                                      ! Rain Indicator
  0,                                      ! Snow Indicator
  21,                                     ! Day of Month
  7,                                      ! Month
  SummerDesignDay,                        ! Day Type
  0,                                      ! Daylight Saving Time Indicator
  Wetbulb,                                ! Humidity Indicating Type
  ,                                       ! Humidity Indicating Day Schedule Name
  DefaultMultipliers,                     ! Dry-Bulb Temperature Range Modifier Type
  ,                                       ! Dry-Bulb Temperature Range Modifier Schedule Name
  ASHRAETau,                              ! Solar Model Indicator
  ,                                       ! Beam Solar Day Schedule Name
  ,                                       ! Diffuse Solar Day Schedule Name
  0.484,                                  ! ASHRAE Taub {dimensionless}
  1.94;                                   ! ASHRAE Taud {dimensionless}

OS:ComponentData,
  {23755ffd-d5d9-4e96-a435-4998d1df0b1c}, ! Handle
  Component Data 1,                       ! Name
  {3f82b3db-204d-47cc-b97b-72cd577d5764}, ! UUID
  {a5107915-644c-41a0-9a30-e48b46dc523c}, ! Version UUID
  1366309812,                             ! Creation Timestamp
  1366309812,                             ! Version Timestamp
  {2de955e1-2dcd-4304-98a3-0bd25f69f182}; ! Name of Object 1

