
OS:Version,
  {b1f8f656-1e2b-4a36-90c3-e49d1f5da38a}, ! Handle
  0.9.3;                                  ! Version Identifier

OS:SizingPeriod:DesignDay,
  {72b70fcf-c7bb-4dc0-8ab9-fdcb66ab0160}, ! Handle
  Buffalo Ann Hum_n 99.6% Condns DP=>MCDB, ! Name
  -15.5,                                  ! Maximum Dry-Bulb Temperature {C}
  0,                                      ! Daily Dry-Bulb Temperature Range {deltaC}
  -20.4,                                  ! Humidity Indicating Conditions at Maximum Dry-Bulb {BasedOnField A3}
  98769,                                  ! Barometric Pressure {Pa}
  5.1,                                    ! Wind Speed {m/s}
  270,                                    ! Wind Direction {deg}
  0,                                      ! Sky Clearness
  0,                                      ! Rain Indicator
  0,                                      ! Snow Indicator
  21,                                     ! Day of Month
  1,                                      ! Month
  WinterDesignDay,                        ! Day Type
  0,                                      ! Daylight Saving Time Indicator
  Dewpoint,                               ! Humidity Indicating Type
  ,                                       ! Humidity Indicating Day Schedule Name
  DefaultMultipliers,                     ! Dry-Bulb Temperature Range Modifier Type
  ,                                       ! Dry-Bulb Temperature Range Modifier Schedule Name
  ASHRAEClearSky;                         ! Solar Model Indicator

OS:ComponentData,
  {29d911fe-38ba-4c19-aaed-9aee2e594e89}, ! Handle
  Component Data 1,                       ! Name
  {c8b96e67-f9dd-496f-bae8-ce916ca280bc}, ! UUID
  {1af98909-fba5-4fc5-bc73-7ee3ada9edce}, ! Version UUID
  1366309602,                             ! Creation Timestamp
  1366309602,                             ! Version Timestamp
  {72b70fcf-c7bb-4dc0-8ab9-fdcb66ab0160}; ! Name of Object 1

