
OS:Version,
  {43517a1b-8ef1-4115-a8de-3bba3a11b175}, ! Handle
  0.9.3;                                  ! Version Identifier

OS:SizingPeriod:DesignDay,
  {302e799f-7886-4bd9-8795-839cdc156678}, ! Handle
  Knoxville Mcghee Tyson Ap Ann Clg 2% Condns Enth=>MDB, ! Name
  29.4,                                   ! Maximum Dry-Bulb Temperature {C}
  10.4,                                   ! Daily Dry-Bulb Temperature Range {deltaC}
  73100,                                  ! Humidity Indicating Conditions at Maximum Dry-Bulb {BasedOnField A3}
  97854,                                  ! Barometric Pressure {Pa}
  3.2,                                    ! Wind Speed {m/s}
  250,                                    ! Wind Direction {deg}
  0,                                      ! Sky Clearness
  0,                                      ! Rain Indicator
  0,                                      ! Snow Indicator
  21,                                     ! Day of Month
  7,                                      ! Month
  SummerDesignDay,                        ! Day Type
  0,                                      ! Daylight Saving Time Indicator
  Enthalpy,                               ! Humidity Indicating Type
  ,                                       ! Humidity Indicating Day Schedule Name
  DefaultMultipliers,                     ! Dry-Bulb Temperature Range Modifier Type
  ,                                       ! Dry-Bulb Temperature Range Modifier Schedule Name
  ASHRAETau,                              ! Solar Model Indicator
  ,                                       ! Beam Solar Day Schedule Name
  ,                                       ! Diffuse Solar Day Schedule Name
  0.547,                                  ! ASHRAE Taub {dimensionless}
  1.786;                                  ! ASHRAE Taud {dimensionless}

OS:ComponentData,
  {e04f80e4-d294-47c2-89b4-0c407aa5b2ba}, ! Handle
  Component Data 1,                       ! Name
  {6541bb41-5cdb-4751-96c6-7ba9bf773c89}, ! UUID
  {5e95cdcb-2af8-4d21-80b7-f08ea604672b}, ! Version UUID
  1366310514,                             ! Creation Timestamp
  1366310514,                             ! Version Timestamp
  {302e799f-7886-4bd9-8795-839cdc156678}; ! Name of Object 1

