
OS:Version,
  {61ea1cf5-4eda-4969-84f5-7ff6b340ebeb}, ! Handle
  0.9.3;                                  ! Version Identifier

OS:SizingPeriod:DesignDay,
  {0ab858ca-b5b3-4f2c-9a78-18eb627c5a12}, ! Handle
  Arcata Airport Ann Clg 1% Condns WB=>MDB, ! Name
  18.6,                                   ! Maximum Dry-Bulb Temperature {C}
  6.5,                                    ! Daily Dry-Bulb Temperature Range {deltaC}
  16.1,                                   ! Humidity Indicating Conditions at Maximum Dry-Bulb {BasedOnField A3}
  100582,                                 ! Barometric Pressure {Pa}
  4.3,                                    ! Wind Speed {m/s}
  320,                                    ! Wind Direction {deg}
  0,                                      ! Sky Clearness
  0,                                      ! Rain Indicator
  0,                                      ! Snow Indicator
  21,                                     ! Day of Month
  8,                                      ! Month
  SummerDesignDay,                        ! Day Type
  0,                                      ! Daylight Saving Time Indicator
  Wetbulb,                                ! Humidity Indicating Type
  ,                                       ! Humidity Indicating Day Schedule Name
  DefaultMultipliers,                     ! Dry-Bulb Temperature Range Modifier Type
  ,                                       ! Dry-Bulb Temperature Range Modifier Schedule Name
  ASHRAETau,                              ! Solar Model Indicator
  ,                                       ! Beam Solar Day Schedule Name
  ,                                       ! Diffuse Solar Day Schedule Name
  0.365,                                  ! ASHRAE Taub {dimensionless}
  2.513;                                  ! ASHRAE Taud {dimensionless}

OS:ComponentData,
  {ed5c093a-9df6-437a-ba58-bd5901ed9a99}, ! Handle
  Component Data 1,                       ! Name
  {8e4f5a7f-ca2a-4181-a320-281e7bba8f59}, ! UUID
  {2df53373-6902-4d46-bee3-87331b3e4ec4}, ! Version UUID
  1366306354,                             ! Creation Timestamp
  1366306354,                             ! Version Timestamp
  {0ab858ca-b5b3-4f2c-9a78-18eb627c5a12}; ! Name of Object 1

