
OS:Version,
  {b485b937-deda-450b-a443-08c9828db47c}, ! Handle
  0.9.3;                                  ! Version Identifier

OS:SizingPeriod:DesignDay,
  {d777556a-daf2-429a-bcea-423988825045}, ! Handle
  Johnstown Cambria County Ap Ann Clg .4% Condns WB=>MDB, ! Name
  27.5,                                   ! Maximum Dry-Bulb Temperature {C}
  9.1,                                    ! Daily Dry-Bulb Temperature Range {deltaC}
  22.6,                                   ! Humidity Indicating Conditions at Maximum Dry-Bulb {BasedOnField A3}
  93250,                                  ! Barometric Pressure {Pa}
  4.3,                                    ! Wind Speed {m/s}
  290,                                    ! Wind Direction {deg}
  0,                                      ! Sky Clearness
  0,                                      ! Rain Indicator
  0,                                      ! Snow Indicator
  21,                                     ! Day of Month
  7,                                      ! Month
  SummerDesignDay,                        ! Day Type
  0,                                      ! Daylight Saving Time Indicator
  Wetbulb,                                ! Humidity Indicating Type
  ,                                       ! Humidity Indicating Day Schedule Name
  DefaultMultipliers,                     ! Dry-Bulb Temperature Range Modifier Type
  ,                                       ! Dry-Bulb Temperature Range Modifier Schedule Name
  ASHRAETau,                              ! Solar Model Indicator
  ,                                       ! Beam Solar Day Schedule Name
  ,                                       ! Diffuse Solar Day Schedule Name
  0.46,                                   ! ASHRAE Taub {dimensionless}
  1.96;                                   ! ASHRAE Taud {dimensionless}

OS:ComponentData,
  {64afffc3-d9f0-48c8-90f0-921f441585be}, ! Handle
  Component Data 1,                       ! Name
  {2184a3ce-2c32-40f8-ac73-72fbb57870c0}, ! UUID
  {3299a234-c117-4c1d-998f-1c2f20cb780d}, ! Version UUID
  1366310202,                             ! Creation Timestamp
  1366310202,                             ! Version Timestamp
  {d777556a-daf2-429a-bcea-423988825045}; ! Name of Object 1

