
OS:Version,
  {f37a89bc-daa1-44d5-922f-91fca9bb1830}, ! Handle
  0.9.3;                                  ! Version Identifier

OS:SizingPeriod:DesignDay,
  {77ba0c03-20cb-4c26-95bc-ddd9889f9881}, ! Handle
  LUBBOCK Ann Clg .4% Condns WB=>MDB,     ! Name
  30.8,                                   ! Maximum Dry-Bulb Temperature {C}
  13.1,                                   ! Daily Dry-Bulb Temperature Range {deltaC}
  22.8,                                   ! Humidity Indicating Conditions at Maximum Dry-Bulb {BasedOnField A3}
  90005,                                  ! Barometric Pressure {Pa}
  6.4,                                    ! Wind Speed {m/s}
  170,                                    ! Wind Direction {deg}
  0,                                      ! Sky Clearness
  0,                                      ! Rain Indicator
  0,                                      ! Snow Indicator
  21,                                     ! Day of Month
  7,                                      ! Month
  SummerDesignDay,                        ! Day Type
  0,                                      ! Daylight Saving Time Indicator
  Wetbulb,                                ! Humidity Indicating Type
  ,                                       ! Humidity Indicating Day Schedule Name
  DefaultMultipliers,                     ! Dry-Bulb Temperature Range Modifier Type
  ,                                       ! Dry-Bulb Temperature Range Modifier Schedule Name
  ASHRAETau,                              ! Solar Model Indicator
  ,                                       ! Beam Solar Day Schedule Name
  ,                                       ! Diffuse Solar Day Schedule Name
  0.396,                                  ! ASHRAE Taub {dimensionless}
  2.241;                                  ! ASHRAE Taud {dimensionless}

OS:ComponentData,
  {f8b17398-05cf-498c-8086-e865d0b7179e}, ! Handle
  Component Data 1,                       ! Name
  {0a44e293-91cf-44b5-b0dc-9a703f7779cb}, ! UUID
  {17c6e260-9b3c-4335-802f-dfa3ad4a483b}, ! Version UUID
  1366310791,                             ! Creation Timestamp
  1366310791,                             ! Version Timestamp
  {77ba0c03-20cb-4c26-95bc-ddd9889f9881}; ! Name of Object 1

