
OS:Version,
  {624c1cae-a46f-4358-9841-3913824e6467}, ! Handle
  0.9.3;                                  ! Version Identifier

OS:SizingPeriod:DesignDay,
  {c5068057-aaaf-4d5b-9619-ad7d186b93bd}, ! Handle
  Colorado Springs Muni Ap Ann Clg 1% Condns DB=>MWB, ! Name
  30.9,                                   ! Maximum Dry-Bulb Temperature {C}
  14.5,                                   ! Daily Dry-Bulb Temperature Range {deltaC}
  14.7,                                   ! Humidity Indicating Conditions at Maximum Dry-Bulb {BasedOnField A3}
  80767,                                  ! Barometric Pressure {Pa}
  5.4,                                    ! Wind Speed {m/s}
  170,                                    ! Wind Direction {deg}
  0,                                      ! Sky Clearness
  0,                                      ! Rain Indicator
  0,                                      ! Snow Indicator
  21,                                     ! Day of Month
  7,                                      ! Month
  SummerDesignDay,                        ! Day Type
  0,                                      ! Daylight Saving Time Indicator
  Wetbulb,                                ! Humidity Indicating Type
  ,                                       ! Humidity Indicating Day Schedule Name
  DefaultMultipliers,                     ! Dry-Bulb Temperature Range Modifier Type
  ,                                       ! Dry-Bulb Temperature Range Modifier Schedule Name
  ASHRAETau,                              ! Solar Model Indicator
  ,                                       ! Beam Solar Day Schedule Name
  ,                                       ! Diffuse Solar Day Schedule Name
  0.408,                                  ! ASHRAE Taub {dimensionless}
  2.047;                                  ! ASHRAE Taud {dimensionless}

OS:ComponentData,
  {bb4a5a53-fc75-42d1-b081-b8a9d37ec789}, ! Handle
  Component Data 1,                       ! Name
  {37f0fe7a-3b66-4be8-ab37-f2ac0bc8053a}, ! UUID
  {c719be19-a0b1-4aae-8d95-949209d18806}, ! Version UUID
  1366306663,                             ! Creation Timestamp
  1366306663,                             ! Version Timestamp
  {c5068057-aaaf-4d5b-9619-ad7d186b93bd}; ! Name of Object 1

