
OS:Version,
  {c5bd625b-31f6-41b3-b0ae-1638888d41f6}, ! Handle
  0.9.3;                                  ! Version Identifier

OS:SizingPeriod:DesignDay,
  {e5ebdf99-e556-4784-abfd-d6aab3904ac4}, ! Handle
  LAS_VEGAS Ann Clg .4% Condns DP=>MDB,   ! Name
  26.6,                                   ! Maximum Dry-Bulb Temperature {C}
  13,                                     ! Daily Dry-Bulb Temperature Range {deltaC}
  19.1,                                   ! Humidity Indicating Conditions at Maximum Dry-Bulb {BasedOnField A3}
  93598,                                  ! Barometric Pressure {Pa}
  4.9,                                    ! Wind Speed {m/s}
  230,                                    ! Wind Direction {deg}
  0,                                      ! Sky Clearness
  0,                                      ! Rain Indicator
  0,                                      ! Snow Indicator
  21,                                     ! Day of Month
  7,                                      ! Month
  SummerDesignDay,                        ! Day Type
  0,                                      ! Daylight Saving Time Indicator
  Dewpoint,                               ! Humidity Indicating Type
  ,                                       ! Humidity Indicating Day Schedule Name
  DefaultMultipliers,                     ! Dry-Bulb Temperature Range Modifier Type
  ,                                       ! Dry-Bulb Temperature Range Modifier Schedule Name
  ASHRAETau,                              ! Solar Model Indicator
  ,                                       ! Beam Solar Day Schedule Name
  ,                                       ! Diffuse Solar Day Schedule Name
  0.55,                                   ! ASHRAE Taub {dimensionless}
  1.674;                                  ! ASHRAE Taud {dimensionless}

OS:ComponentData,
  {02fcb5f4-6ae6-4b78-bbac-7aa7b3a02fdb}, ! Handle
  Component Data 1,                       ! Name
  {54ff1613-250a-4592-9e42-1f8685617628}, ! UUID
  {a30d3598-f50f-4a08-b6ba-e74bd205327a}, ! Version UUID
  1366309507,                             ! Creation Timestamp
  1366309507,                             ! Version Timestamp
  {e5ebdf99-e556-4784-abfd-d6aab3904ac4}; ! Name of Object 1

