
OS:Version,
  {ba1f64b8-4cc5-4041-a650-8a38493095fc}, ! Handle
  0.9.3;                                  ! Version Identifier

OS:SizingPeriod:DesignDay,
  {774cb31a-66e5-44dc-b278-1be35f0a5d83}, ! Handle
  BRIDGEPORT Ann Htg Wind 99% Condns WS=>MCDB, ! Name
  -1.4,                                   ! Maximum Dry-Bulb Temperature {C}
  0,                                      ! Daily Dry-Bulb Temperature Range {deltaC}
  -1.4,                                   ! Humidity Indicating Conditions at Maximum Dry-Bulb {BasedOnField A3}
  101301,                                 ! Barometric Pressure {Pa}
  11.2,                                   ! Wind Speed {m/s}
  350,                                    ! Wind Direction {deg}
  0,                                      ! Sky Clearness
  0,                                      ! Rain Indicator
  0,                                      ! Snow Indicator
  21,                                     ! Day of Month
  1,                                      ! Month
  WinterDesignDay,                        ! Day Type
  0,                                      ! Daylight Saving Time Indicator
  Wetbulb,                                ! Humidity Indicating Type
  ,                                       ! Humidity Indicating Day Schedule Name
  DefaultMultipliers,                     ! Dry-Bulb Temperature Range Modifier Type
  ,                                       ! Dry-Bulb Temperature Range Modifier Schedule Name
  ASHRAEClearSky;                         ! Solar Model Indicator

OS:ComponentData,
  {152723dd-b984-4118-bdba-18beb12c9be0}, ! Handle
  Component Data 1,                       ! Name
  {e56f4f35-ca1f-4432-8945-99077bf67e0e}, ! UUID
  {9d0fcfc7-5ad6-46ce-8fd8-7dadbdcd985b}, ! Version UUID
  1366306749,                             ! Creation Timestamp
  1366306749,                             ! Version Timestamp
  {774cb31a-66e5-44dc-b278-1be35f0a5d83}; ! Name of Object 1

