
OS:Version,
  {b134b581-2797-4142-a454-e78a5ca4ef02}, ! Handle
  0.9.3;                                  ! Version Identifier

OS:SizingPeriod:DesignDay,
  {07db0410-ddc7-4e42-b704-a034847610ea}, ! Handle
  Eau Claire Ann Htg 99.6% Condns DB,     ! Name
  -26.4,                                  ! Maximum Dry-Bulb Temperature {C}
  0,                                      ! Daily Dry-Bulb Temperature Range {deltaC}
  -26.4,                                  ! Humidity Indicating Conditions at Maximum Dry-Bulb {BasedOnField A3}
  98053,                                  ! Barometric Pressure {Pa}
  2.6,                                    ! Wind Speed {m/s}
  250,                                    ! Wind Direction {deg}
  0,                                      ! Sky Clearness
  0,                                      ! Rain Indicator
  0,                                      ! Snow Indicator
  21,                                     ! Day of Month
  1,                                      ! Month
  WinterDesignDay,                        ! Day Type
  0,                                      ! Daylight Saving Time Indicator
  Wetbulb,                                ! Humidity Indicating Type
  ,                                       ! Humidity Indicating Day Schedule Name
  DefaultMultipliers,                     ! Dry-Bulb Temperature Range Modifier Type
  ,                                       ! Dry-Bulb Temperature Range Modifier Schedule Name
  ASHRAEClearSky;                         ! Solar Model Indicator

OS:ComponentData,
  {b1979210-0bcb-4780-8241-36477ade1f37}, ! Handle
  Component Data 1,                       ! Name
  {69a3e39f-d837-41b2-a1a5-fa9f93f165b7}, ! UUID
  {063588bb-71a6-413a-b1b8-791d7a747740}, ! Version UUID
  1366311467,                             ! Creation Timestamp
  1366311467,                             ! Version Timestamp
  {07db0410-ddc7-4e42-b704-a034847610ea}; ! Name of Object 1

