
OS:Version,
  {47635b3d-82dd-49e3-a81c-986040a27189}, ! Handle
  0.9.3;                                  ! Version Identifier

OS:SizingPeriod:DesignDay,
  {134fea83-4870-4cce-96d9-054661531618}, ! Handle
  Abilene Regional Ap  Ut Ann Htg 99% Condns DB, ! Name
  -4.8,                                   ! Maximum Dry-Bulb Temperature {C}
  0,                                      ! Daily Dry-Bulb Temperature Range {deltaC}
  -4.8,                                   ! Humidity Indicating Conditions at Maximum Dry-Bulb {BasedOnField A3}
  95118,                                  ! Barometric Pressure {Pa}
  5.1,                                    ! Wind Speed {m/s}
  10,                                     ! Wind Direction {deg}
  0,                                      ! Sky Clearness
  0,                                      ! Rain Indicator
  0,                                      ! Snow Indicator
  21,                                     ! Day of Month
  1,                                      ! Month
  WinterDesignDay,                        ! Day Type
  0,                                      ! Daylight Saving Time Indicator
  Wetbulb,                                ! Humidity Indicating Type
  ,                                       ! Humidity Indicating Day Schedule Name
  DefaultMultipliers,                     ! Dry-Bulb Temperature Range Modifier Type
  ,                                       ! Dry-Bulb Temperature Range Modifier Schedule Name
  ASHRAEClearSky;                         ! Solar Model Indicator

OS:ComponentData,
  {c1fcda9f-edfd-4091-b964-1f49d51ef515}, ! Handle
  Component Data 1,                       ! Name
  {2dc32a8a-a590-43db-9337-c1ec17d92a66}, ! UUID
  {e0d91d25-5b3a-4f7c-80a2-27fff966bdfb}, ! Version UUID
  1366310557,                             ! Creation Timestamp
  1366310557,                             ! Version Timestamp
  {134fea83-4870-4cce-96d9-054661531618}; ! Name of Object 1

