
OS:Version,
  {1df39416-ba12-4935-9907-ce63f92c450f}, ! Handle
  0.9.3;                                  ! Version Identifier

OS:SizingPeriod:DesignDay,
  {e8f07783-b3ba-4fd2-909c-bc9d6a5de573}, ! Handle
  Lansing Capital City Arpt Ann Clg 2% Condns WB=>MDB, ! Name
  27,                                     ! Maximum Dry-Bulb Temperature {C}
  12,                                     ! Daily Dry-Bulb Temperature Range {deltaC}
  22.7,                                   ! Humidity Indicating Conditions at Maximum Dry-Bulb {BasedOnField A3}
  98287,                                  ! Barometric Pressure {Pa}
  5.6,                                    ! Wind Speed {m/s}
  240,                                    ! Wind Direction {deg}
  0,                                      ! Sky Clearness
  0,                                      ! Rain Indicator
  0,                                      ! Snow Indicator
  21,                                     ! Day of Month
  7,                                      ! Month
  SummerDesignDay,                        ! Day Type
  0,                                      ! Daylight Saving Time Indicator
  Wetbulb,                                ! Humidity Indicating Type
  ,                                       ! Humidity Indicating Day Schedule Name
  DefaultMultipliers,                     ! Dry-Bulb Temperature Range Modifier Type
  ,                                       ! Dry-Bulb Temperature Range Modifier Schedule Name
  ASHRAETau,                              ! Solar Model Indicator
  ,                                       ! Beam Solar Day Schedule Name
  ,                                       ! Diffuse Solar Day Schedule Name
  0.429,                                  ! ASHRAE Taub {dimensionless}
  2.133;                                  ! ASHRAE Taud {dimensionless}

OS:ComponentData,
  {aa23047f-aa29-478f-8f29-5898968b8e7c}, ! Handle
  Component Data 1,                       ! Name
  {5c298783-3b1a-45ea-8d91-25a8f3470c23}, ! UUID
  {62b5079e-f1f5-4081-bfe0-5b20a7f05b4d}, ! Version UUID
  1366308053,                             ! Creation Timestamp
  1366308053,                             ! Version Timestamp
  {e8f07783-b3ba-4fd2-909c-bc9d6a5de573}; ! Name of Object 1

