
OS:Version,
  {1298c9d4-3909-4b74-b0a6-062a016dc5dd}, ! Handle
  0.9.3;                                  ! Version Identifier

OS:SizingPeriod:DesignDay,
  {a1134534-042a-4548-8b2c-1b73d9fad236}, ! Handle
  Hillsville Ann Clg 1% Condns DB=>MWB,   ! Name
  28.4,                                   ! Maximum Dry-Bulb Temperature {C}
  9.1,                                    ! Daily Dry-Bulb Temperature Range {deltaC}
  21.6,                                   ! Humidity Indicating Conditions at Maximum Dry-Bulb {BasedOnField A3}
  91699,                                  ! Barometric Pressure {Pa}
  3,                                      ! Wind Speed {m/s}
  290,                                    ! Wind Direction {deg}
  0,                                      ! Sky Clearness
  0,                                      ! Rain Indicator
  0,                                      ! Snow Indicator
  21,                                     ! Day of Month
  7,                                      ! Month
  SummerDesignDay,                        ! Day Type
  0,                                      ! Daylight Saving Time Indicator
  Wetbulb,                                ! Humidity Indicating Type
  ,                                       ! Humidity Indicating Day Schedule Name
  DefaultMultipliers,                     ! Dry-Bulb Temperature Range Modifier Type
  ,                                       ! Dry-Bulb Temperature Range Modifier Schedule Name
  ASHRAETau,                              ! Solar Model Indicator
  ,                                       ! Beam Solar Day Schedule Name
  ,                                       ! Diffuse Solar Day Schedule Name
  0.495,                                  ! ASHRAE Taub {dimensionless}
  1.877;                                  ! ASHRAE Taud {dimensionless}

OS:ComponentData,
  {6e00c5fe-7973-4ce5-84e2-cf25abb097bd}, ! Handle
  Component Data 1,                       ! Name
  {d8e14f76-d265-487d-be81-4229a58f86a3}, ! UUID
  {bc8904d4-fa6a-453b-b2a3-0b0e16ea5a6a}, ! Version UUID
  1366311059,                             ! Creation Timestamp
  1366311059,                             ! Version Timestamp
  {a1134534-042a-4548-8b2c-1b73d9fad236}; ! Name of Object 1

