
OS:Version,
  {ad850975-aa64-4da8-9932-b964504b9827}, ! Handle
  0.9.3;                                  ! Version Identifier

OS:SizingPeriod:DesignDay,
  {f9639f3a-4c5e-4f80-bf89-ebd3dd21977d}, ! Handle
  Great Falls Intl Arpt Ann Clg .4% Condns DB=>MWB, ! Name
  33.4,                                   ! Maximum Dry-Bulb Temperature {C}
  16,                                     ! Daily Dry-Bulb Temperature Range {deltaC}
  16.3,                                   ! Humidity Indicating Conditions at Maximum Dry-Bulb {BasedOnField A3}
  88606,                                  ! Barometric Pressure {Pa}
  4.9,                                    ! Wind Speed {m/s}
  240,                                    ! Wind Direction {deg}
  0,                                      ! Sky Clearness
  0,                                      ! Rain Indicator
  0,                                      ! Snow Indicator
  21,                                     ! Day of Month
  7,                                      ! Month
  SummerDesignDay,                        ! Day Type
  0,                                      ! Daylight Saving Time Indicator
  Wetbulb,                                ! Humidity Indicating Type
  ,                                       ! Humidity Indicating Day Schedule Name
  DefaultMultipliers,                     ! Dry-Bulb Temperature Range Modifier Type
  ,                                       ! Dry-Bulb Temperature Range Modifier Schedule Name
  ASHRAETau,                              ! Solar Model Indicator
  ,                                       ! Beam Solar Day Schedule Name
  ,                                       ! Diffuse Solar Day Schedule Name
  0.383,                                  ! ASHRAE Taub {dimensionless}
  2.176;                                  ! ASHRAE Taud {dimensionless}

OS:ComponentData,
  {e1564fb0-e8ba-426c-b50d-e08d2edf7b2c}, ! Handle
  Component Data 1,                       ! Name
  {7cb0763a-8724-4d20-8860-1b5cc1210764}, ! UUID
  {8cda8d45-da78-492e-8f0d-6caec0c913dc}, ! Version UUID
  1366308780,                             ! Creation Timestamp
  1366308780,                             ! Version Timestamp
  {f9639f3a-4c5e-4f80-bf89-ebd3dd21977d}; ! Name of Object 1

