
OS:Version,
  {5d9ca1d0-bc91-4038-974d-1db018a9d0be}, ! Handle
  0.9.3;                                  ! Version Identifier

OS:SizingPeriod:DesignDay,
  {58edf9d4-fb72-4907-9a08-83e4480687c7}, ! Handle
  Fort Smith Ann Clg .4% Condns Enth=>MDB, ! Name
  33.6,                                   ! Maximum Dry-Bulb Temperature {C}
  11.5,                                   ! Daily Dry-Bulb Temperature Range {deltaC}
  82900,                                  ! Humidity Indicating Conditions at Maximum Dry-Bulb {BasedOnField A3}
  99643,                                  ! Barometric Pressure {Pa}
  3.7,                                    ! Wind Speed {m/s}
  230,                                    ! Wind Direction {deg}
  0,                                      ! Sky Clearness
  0,                                      ! Rain Indicator
  0,                                      ! Snow Indicator
  21,                                     ! Day of Month
  7,                                      ! Month
  SummerDesignDay,                        ! Day Type
  0,                                      ! Daylight Saving Time Indicator
  Enthalpy,                               ! Humidity Indicating Type
  ,                                       ! Humidity Indicating Day Schedule Name
  DefaultMultipliers,                     ! Dry-Bulb Temperature Range Modifier Type
  ,                                       ! Dry-Bulb Temperature Range Modifier Schedule Name
  ASHRAETau,                              ! Solar Model Indicator
  ,                                       ! Beam Solar Day Schedule Name
  ,                                       ! Diffuse Solar Day Schedule Name
  0.49,                                   ! ASHRAE Taub {dimensionless}
  1.983;                                  ! ASHRAE Taud {dimensionless}

OS:ComponentData,
  {e32a54dd-a3bb-4387-b402-f805efce70e5}, ! Handle
  Component Data 1,                       ! Name
  {e6b60ebc-ed63-4893-ada8-507e7a8022d3}, ! UUID
  {218202d4-5ad0-4a6d-bbc3-eaa007738127}, ! Version UUID
  1366306211,                             ! Creation Timestamp
  1366306211,                             ! Version Timestamp
  {58edf9d4-fb72-4907-9a08-83e4480687c7}; ! Name of Object 1

