
OS:Version,
  {2af3cd9b-710f-4e0e-a5c7-aac86a9f2740}, ! Handle
  0.9.3;                                  ! Version Identifier

OS:SizingPeriod:DesignDay,
  {da368708-ccd7-4621-a8e9-6c8e5161f480}, ! Handle
  Asheville Ann Htg Wind 99.6% Condns WS=>MCDB, ! Name
  -1.7,                                   ! Maximum Dry-Bulb Temperature {C}
  0,                                      ! Daily Dry-Bulb Temperature Range {deltaC}
  -1.7,                                   ! Humidity Indicating Conditions at Maximum Dry-Bulb {BasedOnField A3}
  93632,                                  ! Barometric Pressure {Pa}
  12.5,                                   ! Wind Speed {m/s}
  340,                                    ! Wind Direction {deg}
  0,                                      ! Sky Clearness
  0,                                      ! Rain Indicator
  0,                                      ! Snow Indicator
  21,                                     ! Day of Month
  1,                                      ! Month
  WinterDesignDay,                        ! Day Type
  0,                                      ! Daylight Saving Time Indicator
  Wetbulb,                                ! Humidity Indicating Type
  ,                                       ! Humidity Indicating Day Schedule Name
  DefaultMultipliers,                     ! Dry-Bulb Temperature Range Modifier Type
  ,                                       ! Dry-Bulb Temperature Range Modifier Schedule Name
  ASHRAEClearSky;                         ! Solar Model Indicator

OS:ComponentData,
  {0a25966d-9511-48bb-b4b3-750868c24e4f}, ! Handle
  Component Data 1,                       ! Name
  {21f295d8-0eb0-41f8-9122-d735eae00b89}, ! UUID
  {0887f0fc-4575-40ec-bd10-ffa64f8bf92d}, ! Version UUID
  1366308864,                             ! Creation Timestamp
  1366308864,                             ! Version Timestamp
  {da368708-ccd7-4621-a8e9-6c8e5161f480}; ! Name of Object 1

