
OS:Version,
  {0c1289c7-5f31-488a-8d5e-bdc50947fa4a}, ! Handle
  0.9.3;                                  ! Version Identifier

OS:SizingPeriod:DesignDay,
  {14d8bf72-ce93-4d84-b776-1036e8120fb3}, ! Handle
  Fort Riley Marshall Aaf Ann Clg 2% Condns DB=>MWB, ! Name
  34,                                     ! Maximum Dry-Bulb Temperature {C}
  12.6,                                   ! Daily Dry-Bulb Temperature Range {deltaC}
  23.5,                                   ! Humidity Indicating Conditions at Maximum Dry-Bulb {BasedOnField A3}
  97493,                                  ! Barometric Pressure {Pa}
  4.1,                                    ! Wind Speed {m/s}
  210,                                    ! Wind Direction {deg}
  0,                                      ! Sky Clearness
  0,                                      ! Rain Indicator
  0,                                      ! Snow Indicator
  21,                                     ! Day of Month
  7,                                      ! Month
  SummerDesignDay,                        ! Day Type
  0,                                      ! Daylight Saving Time Indicator
  Wetbulb,                                ! Humidity Indicating Type
  ,                                       ! Humidity Indicating Day Schedule Name
  DefaultMultipliers,                     ! Dry-Bulb Temperature Range Modifier Type
  ,                                       ! Dry-Bulb Temperature Range Modifier Schedule Name
  ASHRAETau,                              ! Solar Model Indicator
  ,                                       ! Beam Solar Day Schedule Name
  ,                                       ! Diffuse Solar Day Schedule Name
  0.424,                                  ! ASHRAE Taub {dimensionless}
  2.19;                                   ! ASHRAE Taud {dimensionless}

OS:ComponentData,
  {b8a7d1c1-278c-42d3-994f-002209f62af0}, ! Handle
  Component Data 1,                       ! Name
  {c3669c10-71b9-4c2a-bb2e-ac550bd7905c}, ! UUID
  {fb89e3ab-9779-41fa-968a-3295f0f986e1}, ! Version UUID
  1366307522,                             ! Creation Timestamp
  1366307522,                             ! Version Timestamp
  {14d8bf72-ce93-4d84-b776-1036e8120fb3}; ! Name of Object 1

