
OS:Version,
  {033ea041-39fa-4155-8c24-9117bc394f94}, ! Handle
  0.9.3;                                  ! Version Identifier

OS:SizingPeriod:DesignDay,
  {9c4994e3-3b79-4a83-9b26-bff02a150d6a}, ! Handle
  ELKO Ann Clg 2% Condns DB=>MWB,         ! Name
  32,                                     ! Maximum Dry-Bulb Temperature {C}
  21.8,                                   ! Daily Dry-Bulb Temperature Range {deltaC}
  14.7,                                   ! Humidity Indicating Conditions at Maximum Dry-Bulb {BasedOnField A3}
  84069,                                  ! Barometric Pressure {Pa}
  4.1,                                    ! Wind Speed {m/s}
  240,                                    ! Wind Direction {deg}
  0,                                      ! Sky Clearness
  0,                                      ! Rain Indicator
  0,                                      ! Snow Indicator
  21,                                     ! Day of Month
  7,                                      ! Month
  SummerDesignDay,                        ! Day Type
  0,                                      ! Daylight Saving Time Indicator
  Wetbulb,                                ! Humidity Indicating Type
  ,                                       ! Humidity Indicating Day Schedule Name
  DefaultMultipliers,                     ! Dry-Bulb Temperature Range Modifier Type
  ,                                       ! Dry-Bulb Temperature Range Modifier Schedule Name
  ASHRAETau,                              ! Solar Model Indicator
  ,                                       ! Beam Solar Day Schedule Name
  ,                                       ! Diffuse Solar Day Schedule Name
  0.446,                                  ! ASHRAE Taub {dimensionless}
  1.888;                                  ! ASHRAE Taud {dimensionless}

OS:ComponentData,
  {b35c643c-9523-4841-9848-52a885b4d2dc}, ! Handle
  Component Data 1,                       ! Name
  {80cb8845-a9f8-425b-b0ec-954440a6e5ba}, ! UUID
  {7982e128-7aef-4ea9-936d-d94cae86a094}, ! Version UUID
  1366309457,                             ! Creation Timestamp
  1366309457,                             ! Version Timestamp
  {9c4994e3-3b79-4a83-9b26-bff02a150d6a}; ! Name of Object 1

