
OS:Version,
  {7059596e-d8bc-457d-8aa5-51d70639b558}, ! Handle
  0.9.3;                                  ! Version Identifier

OS:SizingPeriod:DesignDay,
  {fe95124e-6a57-472d-9a3d-2d6ca3a844e8}, ! Handle
  Escanaba  Awos Ann Htg 99% Condns DB,   ! Name
  -19.1,                                  ! Maximum Dry-Bulb Temperature {C}
  0,                                      ! Daily Dry-Bulb Temperature Range {deltaC}
  -19.1,                                  ! Humidity Indicating Conditions at Maximum Dry-Bulb {BasedOnField A3}
  99099,                                  ! Barometric Pressure {Pa}
  2.9,                                    ! Wind Speed {m/s}
  270,                                    ! Wind Direction {deg}
  0,                                      ! Sky Clearness
  0,                                      ! Rain Indicator
  0,                                      ! Snow Indicator
  21,                                     ! Day of Month
  1,                                      ! Month
  WinterDesignDay,                        ! Day Type
  0,                                      ! Daylight Saving Time Indicator
  Wetbulb,                                ! Humidity Indicating Type
  ,                                       ! Humidity Indicating Day Schedule Name
  DefaultMultipliers,                     ! Dry-Bulb Temperature Range Modifier Type
  ,                                       ! Dry-Bulb Temperature Range Modifier Schedule Name
  ASHRAEClearSky;                         ! Solar Model Indicator

OS:ComponentData,
  {42db474d-11db-40de-842a-b326435b9e0c}, ! Handle
  Component Data 1,                       ! Name
  {a13fd682-ff23-41dd-a53b-f2b9507fc585}, ! UUID
  {601ba87c-65ca-40ff-ba71-ddcf18d411e4}, ! Version UUID
  1366307991,                             ! Creation Timestamp
  1366307991,                             ! Version Timestamp
  {fe95124e-6a57-472d-9a3d-2d6ca3a844e8}; ! Name of Object 1

