
OS:Version,
  {50605013-ea80-435e-bac4-d10847c620ba}, ! Handle
  0.9.3;                                  ! Version Identifier

OS:SizingPeriod:DesignDay,
  {1f710f08-74c0-45ac-baab-f6f641c978cd}, ! Handle
  Akron/Canton Ann Clg 1% Condns DP=>MDB, ! Name
  25.7,                                   ! Maximum Dry-Bulb Temperature {C}
  10.4,                                   ! Daily Dry-Bulb Temperature Range {deltaC}
  21.8,                                   ! Humidity Indicating Conditions at Maximum Dry-Bulb {BasedOnField A3}
  96877,                                  ! Barometric Pressure {Pa}
  4.6,                                    ! Wind Speed {m/s}
  230,                                    ! Wind Direction {deg}
  0,                                      ! Sky Clearness
  0,                                      ! Rain Indicator
  0,                                      ! Snow Indicator
  21,                                     ! Day of Month
  7,                                      ! Month
  SummerDesignDay,                        ! Day Type
  0,                                      ! Daylight Saving Time Indicator
  Dewpoint,                               ! Humidity Indicating Type
  ,                                       ! Humidity Indicating Day Schedule Name
  DefaultMultipliers,                     ! Dry-Bulb Temperature Range Modifier Type
  ,                                       ! Dry-Bulb Temperature Range Modifier Schedule Name
  ASHRAETau,                              ! Solar Model Indicator
  ,                                       ! Beam Solar Day Schedule Name
  ,                                       ! Diffuse Solar Day Schedule Name
  0.464,                                  ! ASHRAE Taub {dimensionless}
  1.994;                                  ! ASHRAE Taud {dimensionless}

OS:ComponentData,
  {2754389d-d5be-4867-9570-207a8c82a597}, ! Handle
  Component Data 1,                       ! Name
  {87f1e9dc-2d5b-4384-b6dc-908d27c0c8be}, ! UUID
  {2bb63466-88e6-45f4-8cd2-8a0e18980e0b}, ! Version UUID
  1366309766,                             ! Creation Timestamp
  1366309766,                             ! Version Timestamp
  {1f710f08-74c0-45ac-baab-f6f641c978cd}; ! Name of Object 1

