
OS:Version,
  {6d8b3eaa-2235-4ac3-95cf-e40fa61a0220}, ! Handle
  0.9.3;                                  ! Version Identifier

OS:SizingPeriod:DesignDay,
  {f9513069-b9c9-4cff-ab96-7963bce89c39}, ! Handle
  Boise Ann Clg 1% Condns DP=>MDB,        ! Name
  22.4,                                   ! Maximum Dry-Bulb Temperature {C}
  16.7,                                   ! Daily Dry-Bulb Temperature Range {deltaC}
  13,                                     ! Humidity Indicating Conditions at Maximum Dry-Bulb {BasedOnField A3}
  91257,                                  ! Barometric Pressure {Pa}
  4.2,                                    ! Wind Speed {m/s}
  330,                                    ! Wind Direction {deg}
  0,                                      ! Sky Clearness
  0,                                      ! Rain Indicator
  0,                                      ! Snow Indicator
  21,                                     ! Day of Month
  7,                                      ! Month
  SummerDesignDay,                        ! Day Type
  0,                                      ! Daylight Saving Time Indicator
  Dewpoint,                               ! Humidity Indicating Type
  ,                                       ! Humidity Indicating Day Schedule Name
  DefaultMultipliers,                     ! Dry-Bulb Temperature Range Modifier Type
  ,                                       ! Dry-Bulb Temperature Range Modifier Schedule Name
  ASHRAETau,                              ! Solar Model Indicator
  ,                                       ! Beam Solar Day Schedule Name
  ,                                       ! Diffuse Solar Day Schedule Name
  0.398,                                  ! ASHRAE Taub {dimensionless}
  2.125;                                  ! ASHRAE Taud {dimensionless}

OS:ComponentData,
  {fadf2f97-df39-449a-b2b1-397d9d319cbc}, ! Handle
  Component Data 1,                       ! Name
  {0a5bc350-b1cb-4d1a-902b-eb3445c009c5}, ! UUID
  {20ec1b20-0835-4940-8314-1d3d73437b97}, ! Version UUID
  1366307265,                             ! Creation Timestamp
  1366307265,                             ! Version Timestamp
  {f9513069-b9c9-4cff-ab96-7963bce89c39}; ! Name of Object 1

