
OS:Version,
  {4db6dcca-80de-4d1b-8560-08376e9f314a}, ! Handle
  0.9.3;                                  ! Version Identifier

OS:SizingPeriod:DesignDay,
  {480b239e-c9b4-488a-93a0-d468d76b4131}, ! Handle
  Cape May Co Ann Clg .4% Condns Enth=>MDB, ! Name
  29.8,                                   ! Maximum Dry-Bulb Temperature {C}
  8.1,                                    ! Daily Dry-Bulb Temperature Range {deltaC}
  76800,                                  ! Humidity Indicating Conditions at Maximum Dry-Bulb {BasedOnField A3}
  101241,                                 ! Barometric Pressure {Pa}
  4.4,                                    ! Wind Speed {m/s}
  240,                                    ! Wind Direction {deg}
  0,                                      ! Sky Clearness
  0,                                      ! Rain Indicator
  0,                                      ! Snow Indicator
  21,                                     ! Day of Month
  7,                                      ! Month
  SummerDesignDay,                        ! Day Type
  0,                                      ! Daylight Saving Time Indicator
  Enthalpy,                               ! Humidity Indicating Type
  ,                                       ! Humidity Indicating Day Schedule Name
  DefaultMultipliers,                     ! Dry-Bulb Temperature Range Modifier Type
  ,                                       ! Dry-Bulb Temperature Range Modifier Schedule Name
  ASHRAETau,                              ! Solar Model Indicator
  ,                                       ! Beam Solar Day Schedule Name
  ,                                       ! Diffuse Solar Day Schedule Name
  0.564,                                  ! ASHRAE Taub {dimensionless}
  1.76;                                   ! ASHRAE Taud {dimensionless}

OS:ComponentData,
  {f1b9e069-1694-4499-9bc8-74b046056756}, ! Handle
  Component Data 1,                       ! Name
  {16ed4904-18e3-4f7b-9e21-47b4fae5a083}, ! UUID
  {aba35221-cb53-4476-adc9-ad2b2d728c97}, ! Version UUID
  1366309304,                             ! Creation Timestamp
  1366309304,                             ! Version Timestamp
  {480b239e-c9b4-488a-93a0-d468d76b4131}; ! Name of Object 1

