
OS:Version,
  {296c04ad-e407-478c-88a9-db18e062e672}, ! Handle
  0.9.3;                                  ! Version Identifier

OS:SizingPeriod:DesignDay,
  {84e6f7db-39a9-45ef-b98b-2250c62b21e6}, ! Handle
  Dickinson Municipal Ap Ann Clg 1% Condns WB=>MDB, ! Name
  27.8,                                   ! Maximum Dry-Bulb Temperature {C}
  14.4,                                   ! Daily Dry-Bulb Temperature Range {deltaC}
  20.7,                                   ! Humidity Indicating Conditions at Maximum Dry-Bulb {BasedOnField A3}
  92210,                                  ! Barometric Pressure {Pa}
  6.3,                                    ! Wind Speed {m/s}
  150,                                    ! Wind Direction {deg}
  0,                                      ! Sky Clearness
  0,                                      ! Rain Indicator
  0,                                      ! Snow Indicator
  21,                                     ! Day of Month
  7,                                      ! Month
  SummerDesignDay,                        ! Day Type
  0,                                      ! Daylight Saving Time Indicator
  Wetbulb,                                ! Humidity Indicating Type
  ,                                       ! Humidity Indicating Day Schedule Name
  DefaultMultipliers,                     ! Dry-Bulb Temperature Range Modifier Type
  ,                                       ! Dry-Bulb Temperature Range Modifier Schedule Name
  ASHRAETau,                              ! Solar Model Indicator
  ,                                       ! Beam Solar Day Schedule Name
  ,                                       ! Diffuse Solar Day Schedule Name
  0.38,                                   ! ASHRAE Taub {dimensionless}
  2.261;                                  ! ASHRAE Taud {dimensionless}

OS:ComponentData,
  {59fbb001-1d50-4f19-9ec4-63bc2ca8a3c9}, ! Handle
  Component Data 1,                       ! Name
  {77858463-2e58-4034-9788-f8b61086daa7}, ! UUID
  {c4c642db-6976-4a42-9acf-4cdbd8f91e3e}, ! Version UUID
  1366309020,                             ! Creation Timestamp
  1366309020,                             ! Version Timestamp
  {84e6f7db-39a9-45ef-b98b-2250c62b21e6}; ! Name of Object 1

