
OS:Version,
  {dbfad48d-c138-4f3f-bacf-6e88700bb091}, ! Handle
  0.9.3;                                  ! Version Identifier

OS:SizingPeriod:DesignDay,
  {f47c0882-5908-48a6-82e4-deb07b728ffa}, ! Handle
  Columbia Ann Htg 99% Condns DB,         ! Name
  -13.8,                                  ! Maximum Dry-Bulb Temperature {C}
  0,                                      ! Daily Dry-Bulb Temperature Range {deltaC}
  -13.8,                                  ! Humidity Indicating Conditions at Maximum Dry-Bulb {BasedOnField A3}
  98076,                                  ! Barometric Pressure {Pa}
  4.4,                                    ! Wind Speed {m/s}
  280,                                    ! Wind Direction {deg}
  0,                                      ! Sky Clearness
  0,                                      ! Rain Indicator
  0,                                      ! Snow Indicator
  21,                                     ! Day of Month
  1,                                      ! Month
  WinterDesignDay,                        ! Day Type
  0,                                      ! Daylight Saving Time Indicator
  Wetbulb,                                ! Humidity Indicating Type
  ,                                       ! Humidity Indicating Day Schedule Name
  DefaultMultipliers,                     ! Dry-Bulb Temperature Range Modifier Type
  ,                                       ! Dry-Bulb Temperature Range Modifier Schedule Name
  ASHRAEClearSky;                         ! Solar Model Indicator

OS:ComponentData,
  {018d023e-aa9f-4cf4-9b28-0d63aded39c3}, ! Handle
  Component Data 1,                       ! Name
  {20b19e7c-c0db-4502-9db5-7b1e4edc5160}, ! UUID
  {c5332fe6-03a6-49d5-9577-7b91d2bfe6dd}, ! Version UUID
  1366308485,                             ! Creation Timestamp
  1366308485,                             ! Version Timestamp
  {f47c0882-5908-48a6-82e4-deb07b728ffa}; ! Name of Object 1

