
OS:Version,
  {2ea97fc5-a9af-4b10-83e9-ee580362981f}, ! Handle
  0.9.3;                                  ! Version Identifier

OS:SizingPeriod:DesignDay,
  {71e8b6bf-af2b-4574-8eef-cd6316617541}, ! Handle
  Cleveland Hopkins Intl Ap Ann Htg Wind 99.6% Condns WS=>MCDB, ! Name
  -2,                                     ! Maximum Dry-Bulb Temperature {C}
  0,                                      ! Daily Dry-Bulb Temperature Range {deltaC}
  -2,                                     ! Humidity Indicating Conditions at Maximum Dry-Bulb {BasedOnField A3}
  98534,                                  ! Barometric Pressure {Pa}
  12.8,                                   ! Wind Speed {m/s}
  230,                                    ! Wind Direction {deg}
  0,                                      ! Sky Clearness
  0,                                      ! Rain Indicator
  0,                                      ! Snow Indicator
  21,                                     ! Day of Month
  1,                                      ! Month
  WinterDesignDay,                        ! Day Type
  0,                                      ! Daylight Saving Time Indicator
  Wetbulb,                                ! Humidity Indicating Type
  ,                                       ! Humidity Indicating Day Schedule Name
  DefaultMultipliers,                     ! Dry-Bulb Temperature Range Modifier Type
  ,                                       ! Dry-Bulb Temperature Range Modifier Schedule Name
  ASHRAEClearSky;                         ! Solar Model Indicator

OS:ComponentData,
  {a10a01e1-225d-40f9-92bb-ae242436096c}, ! Handle
  Component Data 1,                       ! Name
  {28c8b04b-c090-4f77-84d5-b8a14db0c248}, ! UUID
  {dfb81f08-0738-4562-870e-3141463ac2aa}, ! Version UUID
  1366309780,                             ! Creation Timestamp
  1366309780,                             ! Version Timestamp
  {71e8b6bf-af2b-4574-8eef-cd6316617541}; ! Name of Object 1

