
OS:Version,
  {165da867-9aa6-4a1c-945f-7d44dfc20096}, ! Handle
  0.9.3;                                  ! Version Identifier

OS:SizingPeriod:DesignDay,
  {2ae30b00-8573-468e-b213-b1953cf5ba7b}, ! Handle
  Ambler Ann Clg .4% Condns WB=>MDB,      ! Name
  22.5,                                   ! Maximum Dry-Bulb Temperature {C}
  8.6,                                    ! Daily Dry-Bulb Temperature Range {deltaC}
  16.2,                                   ! Humidity Indicating Conditions at Maximum Dry-Bulb {BasedOnField A3}
  100272,                                 ! Barometric Pressure {Pa}
  2.9,                                    ! Wind Speed {m/s}
  220,                                    ! Wind Direction {deg}
  0,                                      ! Sky Clearness
  0,                                      ! Rain Indicator
  0,                                      ! Snow Indicator
  21,                                     ! Day of Month
  7,                                      ! Month
  SummerDesignDay,                        ! Day Type
  0,                                      ! Daylight Saving Time Indicator
  Wetbulb,                                ! Humidity Indicating Type
  ,                                       ! Humidity Indicating Day Schedule Name
  DefaultMultipliers,                     ! Dry-Bulb Temperature Range Modifier Type
  ,                                       ! Dry-Bulb Temperature Range Modifier Schedule Name
  ASHRAETau,                              ! Solar Model Indicator
  ,                                       ! Beam Solar Day Schedule Name
  ,                                       ! Diffuse Solar Day Schedule Name
  0.377,                                  ! ASHRAE Taub {dimensionless}
  2.198;                                  ! ASHRAE Taud {dimensionless}

OS:ComponentData,
  {a32fe0be-fdde-467c-9847-b28ed32aafb8}, ! Handle
  Component Data 1,                       ! Name
  {bdf84667-cf28-4bbe-a5c9-e984b35b9272}, ! UUID
  {c904b228-518a-48d3-8a15-d097e1b4df5c}, ! Version UUID
  1366304684,                             ! Creation Timestamp
  1366304684,                             ! Version Timestamp
  {2ae30b00-8573-468e-b213-b1953cf5ba7b}; ! Name of Object 1

