
OS:Version,
  {e2cc3c74-199d-460c-bc74-39f8a0172314}, ! Handle
  0.9.3;                                  ! Version Identifier

OS:SizingPeriod:DesignDay,
  {645a7890-27be-4f47-9558-75edde3d9b1e}, ! Handle
  Lufkin Ann Htg Wind 99.6% Condns WS=>MCDB, ! Name
  13.4,                                   ! Maximum Dry-Bulb Temperature {C}
  0,                                      ! Daily Dry-Bulb Temperature Range {deltaC}
  13.4,                                   ! Humidity Indicating Conditions at Maximum Dry-Bulb {BasedOnField A3}
  100272,                                 ! Barometric Pressure {Pa}
  8.9,                                    ! Wind Speed {m/s}
  340,                                    ! Wind Direction {deg}
  0,                                      ! Sky Clearness
  0,                                      ! Rain Indicator
  0,                                      ! Snow Indicator
  21,                                     ! Day of Month
  1,                                      ! Month
  WinterDesignDay,                        ! Day Type
  0,                                      ! Daylight Saving Time Indicator
  Wetbulb,                                ! Humidity Indicating Type
  ,                                       ! Humidity Indicating Day Schedule Name
  DefaultMultipliers,                     ! Dry-Bulb Temperature Range Modifier Type
  ,                                       ! Dry-Bulb Temperature Range Modifier Schedule Name
  ASHRAEClearSky;                         ! Solar Model Indicator

OS:ComponentData,
  {521eaab0-6bc7-441d-9dee-d6d5a30a6467}, ! Handle
  Component Data 1,                       ! Name
  {10c22371-5a80-4c64-bbc3-bf6ea2fd0163}, ! UUID
  {cf261037-4529-467e-b146-03db47d58dd3}, ! Version UUID
  1366310802,                             ! Creation Timestamp
  1366310802,                             ! Version Timestamp
  {645a7890-27be-4f47-9558-75edde3d9b1e}; ! Name of Object 1

