
OS:Version,
  {595a425f-3fa9-4b56-8316-a4a934ccf5d7}, ! Handle
  0.9.3;                                  ! Version Identifier

OS:SizingPeriod:DesignDay,
  {3f2b0e08-b70d-4027-b8ad-8b74c0836892}, ! Handle
  CLEVELAND Ann Clg .4% Condns WB=>MDB,   ! Name
  29.8,                                   ! Maximum Dry-Bulb Temperature {C}
  9.8,                                    ! Daily Dry-Bulb Temperature Range {deltaC}
  24.6,                                   ! Humidity Indicating Conditions at Maximum Dry-Bulb {BasedOnField A3}
  98416,                                  ! Barometric Pressure {Pa}
  5,                                      ! Wind Speed {m/s}
  230,                                    ! Wind Direction {deg}
  0,                                      ! Sky Clearness
  0,                                      ! Rain Indicator
  0,                                      ! Snow Indicator
  21,                                     ! Day of Month
  7,                                      ! Month
  SummerDesignDay,                        ! Day Type
  0,                                      ! Daylight Saving Time Indicator
  Wetbulb,                                ! Humidity Indicating Type
  ,                                       ! Humidity Indicating Day Schedule Name
  DefaultMultipliers,                     ! Dry-Bulb Temperature Range Modifier Type
  ,                                       ! Dry-Bulb Temperature Range Modifier Schedule Name
  ASHRAETau,                              ! Solar Model Indicator
  ,                                       ! Beam Solar Day Schedule Name
  ,                                       ! Diffuse Solar Day Schedule Name
  0.471,                                  ! ASHRAE Taub {dimensionless}
  1.988;                                  ! ASHRAE Taud {dimensionless}

OS:ComponentData,
  {233d8140-32e1-417a-9d4a-142568376167}, ! Handle
  Component Data 1,                       ! Name
  {f140def6-0d55-454c-abf1-460b5eba9606}, ! UUID
  {a92e3a83-3317-4ca1-81db-bb1482510de3}, ! Version UUID
  1366309785,                             ! Creation Timestamp
  1366309785,                             ! Version Timestamp
  {3f2b0e08-b70d-4027-b8ad-8b74c0836892}; ! Name of Object 1

