
OS:Version,
  {ab41a606-a7e3-4613-89a1-e8d850e2fb44}, ! Handle
  0.9.3;                                  ! Version Identifier

OS:SizingPeriod:DesignDay,
  {20a2e7f4-1158-4a7b-8c09-d75563f8de0b}, ! Handle
  Houston D W  Hooks Ann Clg .4% Condns WB=>MDB, ! Name
  31.2,                                   ! Maximum Dry-Bulb Temperature {C}
  10.4,                                   ! Daily Dry-Bulb Temperature Range {deltaC}
  26.8,                                   ! Humidity Indicating Conditions at Maximum Dry-Bulb {BasedOnField A3}
  100774,                                 ! Barometric Pressure {Pa}
  3.1,                                    ! Wind Speed {m/s}
  170,                                    ! Wind Direction {deg}
  0,                                      ! Sky Clearness
  0,                                      ! Rain Indicator
  0,                                      ! Snow Indicator
  21,                                     ! Day of Month
  7,                                      ! Month
  SummerDesignDay,                        ! Day Type
  0,                                      ! Daylight Saving Time Indicator
  Wetbulb,                                ! Humidity Indicating Type
  ,                                       ! Humidity Indicating Day Schedule Name
  DefaultMultipliers,                     ! Dry-Bulb Temperature Range Modifier Type
  ,                                       ! Dry-Bulb Temperature Range Modifier Schedule Name
  ASHRAETau,                              ! Solar Model Indicator
  ,                                       ! Beam Solar Day Schedule Name
  ,                                       ! Diffuse Solar Day Schedule Name
  0.496,                                  ! ASHRAE Taub {dimensionless}
  1.979;                                  ! ASHRAE Taud {dimensionless}

OS:ComponentData,
  {2c6d593a-d892-4e27-afca-22c2bcd062a8}, ! Handle
  Component Data 1,                       ! Name
  {ef75a7a6-ff8d-4a6d-9958-d625a050bb1b}, ! UUID
  {93526fec-915c-44fe-9611-88b9863b43e6}, ! Version UUID
  1366310747,                             ! Creation Timestamp
  1366310747,                             ! Version Timestamp
  {20a2e7f4-1158-4a7b-8c09-d75563f8de0b}; ! Name of Object 1

