
OS:Version,
  {fd778643-7da3-4bd2-a20c-b494c42b87e1}, ! Handle
  0.9.3;                                  ! Version Identifier

OS:SizingPeriod:DesignDay,
  {296062f2-446c-4226-afc0-8a32527bc626}, ! Handle
  Denver Intl Ap Ann Clg .4% Condns DB=>MWB, ! Name
  34.6,                                   ! Maximum Dry-Bulb Temperature {C}
  15.2,                                   ! Daily Dry-Bulb Temperature Range {deltaC}
  15.7,                                   ! Humidity Indicating Conditions at Maximum Dry-Bulb {BasedOnField A3}
  83011,                                  ! Barometric Pressure {Pa}
  4.2,                                    ! Wind Speed {m/s}
  80,                                     ! Wind Direction {deg}
  0,                                      ! Sky Clearness
  0,                                      ! Rain Indicator
  0,                                      ! Snow Indicator
  21,                                     ! Day of Month
  7,                                      ! Month
  SummerDesignDay,                        ! Day Type
  0,                                      ! Daylight Saving Time Indicator
  Wetbulb,                                ! Humidity Indicating Type
  ,                                       ! Humidity Indicating Day Schedule Name
  DefaultMultipliers,                     ! Dry-Bulb Temperature Range Modifier Type
  ,                                       ! Dry-Bulb Temperature Range Modifier Schedule Name
  ASHRAETau,                              ! Solar Model Indicator
  ,                                       ! Beam Solar Day Schedule Name
  ,                                       ! Diffuse Solar Day Schedule Name
  0.424,                                  ! ASHRAE Taub {dimensionless}
  2.012;                                  ! ASHRAE Taud {dimensionless}

OS:ComponentData,
  {1dd3d4f3-2ee2-4f76-aa5e-d26a113b54ad}, ! Handle
  Component Data 1,                       ! Name
  {90cbeb80-2c0e-435d-99d8-394c73829168}, ! UUID
  {cf273d2d-118d-42c3-94da-b9d008a4bb47}, ! Version UUID
  1366306677,                             ! Creation Timestamp
  1366306677,                             ! Version Timestamp
  {296062f2-446c-4226-afc0-8a32527bc626}; ! Name of Object 1

