
OS:Version,
  {8dc21461-bafd-401a-a83d-0ca8a85ffa63}, ! Handle
  0.9.3;                                  ! Version Identifier

OS:SizingPeriod:DesignDay,
  {ca99bc74-5002-45c7-8ca5-b4e895011901}, ! Handle
  King Salmon Ann Clg 1% Condns Enth=>MDB, ! Name
  18.8,                                   ! Maximum Dry-Bulb Temperature {C}
  8.6,                                    ! Daily Dry-Bulb Temperature Range {deltaC}
  41100,                                  ! Humidity Indicating Conditions at Maximum Dry-Bulb {BasedOnField A3}
  101145,                                 ! Barometric Pressure {Pa}
  4.8,                                    ! Wind Speed {m/s}
  270,                                    ! Wind Direction {deg}
  0,                                      ! Sky Clearness
  0,                                      ! Rain Indicator
  0,                                      ! Snow Indicator
  21,                                     ! Day of Month
  7,                                      ! Month
  SummerDesignDay,                        ! Day Type
  0,                                      ! Daylight Saving Time Indicator
  Enthalpy,                               ! Humidity Indicating Type
  ,                                       ! Humidity Indicating Day Schedule Name
  DefaultMultipliers,                     ! Dry-Bulb Temperature Range Modifier Type
  ,                                       ! Dry-Bulb Temperature Range Modifier Schedule Name
  ASHRAETau,                              ! Solar Model Indicator
  ,                                       ! Beam Solar Day Schedule Name
  ,                                       ! Diffuse Solar Day Schedule Name
  0.384,                                  ! ASHRAE Taub {dimensionless}
  2.227;                                  ! ASHRAE Taud {dimensionless}

OS:ComponentData,
  {c00b402b-1180-48dc-8bef-958ad11e1968}, ! Handle
  Component Data 1,                       ! Name
  {60536af7-389a-48c7-b6be-6ffee3942639}, ! UUID
  {b6f2d74f-1ba3-46cc-bcfd-a290a53f5e56}, ! Version UUID
  1366305364,                             ! Creation Timestamp
  1366305364,                             ! Version Timestamp
  {ca99bc74-5002-45c7-8ca5-b4e895011901}; ! Name of Object 1

