
OS:Version,
  {bffeb8eb-f5ea-4519-8c30-8787259f22bc}, ! Handle
  0.9.3;                                  ! Version Identifier

OS:SizingPeriod:DesignDay,
  {d48057a7-5a8b-4e05-8209-1160035a8b81}, ! Handle
  Barksdale Afb Ann Clg 1% Condns Enth=>MDB, ! Name
  31.8,                                   ! Maximum Dry-Bulb Temperature {C}
  10.5,                                   ! Daily Dry-Bulb Temperature Range {deltaC}
  80600,                                  ! Humidity Indicating Conditions at Maximum Dry-Bulb {BasedOnField A3}
  100678,                                 ! Barometric Pressure {Pa}
  2.6,                                    ! Wind Speed {m/s}
  180,                                    ! Wind Direction {deg}
  0,                                      ! Sky Clearness
  0,                                      ! Rain Indicator
  0,                                      ! Snow Indicator
  21,                                     ! Day of Month
  7,                                      ! Month
  SummerDesignDay,                        ! Day Type
  0,                                      ! Daylight Saving Time Indicator
  Enthalpy,                               ! Humidity Indicating Type
  ,                                       ! Humidity Indicating Day Schedule Name
  DefaultMultipliers,                     ! Dry-Bulb Temperature Range Modifier Type
  ,                                       ! Dry-Bulb Temperature Range Modifier Schedule Name
  ASHRAETau,                              ! Solar Model Indicator
  ,                                       ! Beam Solar Day Schedule Name
  ,                                       ! Diffuse Solar Day Schedule Name
  0.492,                                  ! ASHRAE Taub {dimensionless}
  2.007;                                  ! ASHRAE Taud {dimensionless}

OS:ComponentData,
  {4711d6b5-15e3-471b-9de7-66ca861b3290}, ! Handle
  Component Data 1,                       ! Name
  {f872e6c2-4aed-4f15-8ab7-b84b517c021d}, ! UUID
  {be0f6f70-a265-432f-b33f-ae782b179d8a}, ! Version UUID
  1366307701,                             ! Creation Timestamp
  1366307701,                             ! Version Timestamp
  {d48057a7-5a8b-4e05-8209-1160035a8b81}; ! Name of Object 1

