
OS:Version,
  {f907e043-fe83-452a-8309-beb67c2af862}, ! Handle
  0.9.3;                                  ! Version Identifier

OS:SizingPeriod:DesignDay,
  {900b7d76-c221-4636-a453-b9702b2148d3}, ! Handle
  Billings Logan IntL Arpt Ann Clg .4% Condns Enth=>MDB, ! Name
  29.5,                                   ! Maximum Dry-Bulb Temperature {C}
  14.5,                                   ! Daily Dry-Bulb Temperature Range {deltaC}
  58800,                                  ! Humidity Indicating Conditions at Maximum Dry-Bulb {BasedOnField A3}
  88930,                                  ! Barometric Pressure {Pa}
  4.2,                                    ! Wind Speed {m/s}
  50,                                     ! Wind Direction {deg}
  0,                                      ! Sky Clearness
  0,                                      ! Rain Indicator
  0,                                      ! Snow Indicator
  21,                                     ! Day of Month
  7,                                      ! Month
  SummerDesignDay,                        ! Day Type
  0,                                      ! Daylight Saving Time Indicator
  Enthalpy,                               ! Humidity Indicating Type
  ,                                       ! Humidity Indicating Day Schedule Name
  DefaultMultipliers,                     ! Dry-Bulb Temperature Range Modifier Type
  ,                                       ! Dry-Bulb Temperature Range Modifier Schedule Name
  ASHRAETau,                              ! Solar Model Indicator
  ,                                       ! Beam Solar Day Schedule Name
  ,                                       ! Diffuse Solar Day Schedule Name
  0.405,                                  ! ASHRAE Taub {dimensionless}
  2.084;                                  ! ASHRAE Taud {dimensionless}

OS:ComponentData,
  {99054ac6-ba5b-4cb6-ab49-ad669f41977d}, ! Handle
  Component Data 1,                       ! Name
  {151c6be8-1258-4da1-9482-674337052c6b}, ! UUID
  {02f09c97-c587-41c2-a264-de305e5003ee}, ! Version UUID
  1366308707,                             ! Creation Timestamp
  1366308707,                             ! Version Timestamp
  {900b7d76-c221-4636-a453-b9702b2148d3}; ! Name of Object 1

