
OS:Version,
  {706cdd6b-2a45-4532-9927-6a8525b77b64}, ! Handle
  0.9.3;                                  ! Version Identifier

OS:SizingPeriod:DesignDay,
  {dcf8dcce-ef19-4049-882f-59445c10ca0d}, ! Handle
  ARCATA Ann Htg 99% Condns DB,           ! Name
  0.6,                                    ! Maximum Dry-Bulb Temperature {C}
  0,                                      ! Daily Dry-Bulb Temperature Range {deltaC}
  0.6,                                    ! Humidity Indicating Conditions at Maximum Dry-Bulb {BasedOnField A3}
  100499,                                 ! Barometric Pressure {Pa}
  2,                                      ! Wind Speed {m/s}
  90,                                     ! Wind Direction {deg}
  0,                                      ! Sky Clearness
  0,                                      ! Rain Indicator
  0,                                      ! Snow Indicator
  21,                                     ! Day of Month
  12,                                     ! Month
  WinterDesignDay,                        ! Day Type
  0,                                      ! Daylight Saving Time Indicator
  Wetbulb,                                ! Humidity Indicating Type
  ,                                       ! Humidity Indicating Day Schedule Name
  DefaultMultipliers,                     ! Dry-Bulb Temperature Range Modifier Type
  ,                                       ! Dry-Bulb Temperature Range Modifier Schedule Name
  ASHRAEClearSky;                         ! Solar Model Indicator

OS:ComponentData,
  {b8cb12e9-dfba-412f-864d-d7e2ac0a62a0}, ! Handle
  Component Data 1,                       ! Name
  {fbdbb1f3-b325-4dc3-a93e-6fefc4c5cb75}, ! UUID
  {ad492adf-25ce-4b50-a26a-e0b1c037f85e}, ! Version UUID
  1366306345,                             ! Creation Timestamp
  1366306345,                             ! Version Timestamp
  {dcf8dcce-ef19-4049-882f-59445c10ca0d}; ! Name of Object 1

