
OS:Version,
  {9e636e7b-8ac6-41eb-8bf2-a5dab36896a1}, ! Handle
  0.9.3;                                  ! Version Identifier

OS:SizingPeriod:DesignDay,
  {03f5a8dc-e45f-41f8-bd25-bc224f98b085}, ! Handle
  Los Angeles Intl Arpt Ann Hum_n 99% Condns DP=>MCDB, ! Name
  15.2,                                   ! Maximum Dry-Bulb Temperature {C}
  0,                                      ! Daily Dry-Bulb Temperature Range {deltaC}
  -7.7,                                   ! Humidity Indicating Conditions at Maximum Dry-Bulb {BasedOnField A3}
  100965,                                 ! Barometric Pressure {Pa}
  2.4,                                    ! Wind Speed {m/s}
  90,                                     ! Wind Direction {deg}
  0,                                      ! Sky Clearness
  0,                                      ! Rain Indicator
  0,                                      ! Snow Indicator
  21,                                     ! Day of Month
  1,                                      ! Month
  WinterDesignDay,                        ! Day Type
  0,                                      ! Daylight Saving Time Indicator
  Dewpoint,                               ! Humidity Indicating Type
  ,                                       ! Humidity Indicating Day Schedule Name
  DefaultMultipliers,                     ! Dry-Bulb Temperature Range Modifier Type
  ,                                       ! Dry-Bulb Temperature Range Modifier Schedule Name
  ASHRAEClearSky;                         ! Solar Model Indicator

OS:ComponentData,
  {34b94c3e-e8a3-4f72-8422-5821d9b43ffb}, ! Handle
  Component Data 1,                       ! Name
  {a80a81dd-5d6b-4970-9c8e-7b8abead532e}, ! UUID
  {811afa3d-7af1-4ce3-ad9f-033d626f9b7f}, ! Version UUID
  1366306483,                             ! Creation Timestamp
  1366306483,                             ! Version Timestamp
  {03f5a8dc-e45f-41f8-bd25-bc224f98b085}; ! Name of Object 1

