
OS:Version,
  {c925281a-1bcc-46e1-aaba-57f0bb3143f4}, ! Handle
  0.9.3;                                  ! Version Identifier

OS:SizingPeriod:DesignDay,
  {7e330e47-cd32-4a8b-b258-fc15231f8512}, ! Handle
  Baudette International Ap Ann Clg .4% Condns WB=>MDB, ! Name
  27.7,                                   ! Maximum Dry-Bulb Temperature {C}
  11.5,                                   ! Daily Dry-Bulb Temperature Range {deltaC}
  23,                                     ! Humidity Indicating Conditions at Maximum Dry-Bulb {BasedOnField A3}
  97423,                                  ! Barometric Pressure {Pa}
  5,                                      ! Wind Speed {m/s}
  200,                                    ! Wind Direction {deg}
  0,                                      ! Sky Clearness
  0,                                      ! Rain Indicator
  0,                                      ! Snow Indicator
  21,                                     ! Day of Month
  7,                                      ! Month
  SummerDesignDay,                        ! Day Type
  0,                                      ! Daylight Saving Time Indicator
  Wetbulb,                                ! Humidity Indicating Type
  ,                                       ! Humidity Indicating Day Schedule Name
  DefaultMultipliers,                     ! Dry-Bulb Temperature Range Modifier Type
  ,                                       ! Dry-Bulb Temperature Range Modifier Schedule Name
  ASHRAETau,                              ! Solar Model Indicator
  ,                                       ! Beam Solar Day Schedule Name
  ,                                       ! Diffuse Solar Day Schedule Name
  0.397,                                  ! ASHRAE Taub {dimensionless}
  2.236;                                  ! ASHRAE Taud {dimensionless}

OS:ComponentData,
  {d32737c9-2fca-4e0f-8e50-e2c6e499be46}, ! Handle
  Component Data 1,                       ! Name
  {cbc22bf2-2096-4d36-be6c-76d28516b7a9}, ! UUID
  {f8468105-cee7-437e-a5ef-1ff95f4508c8}, ! Version UUID
  1366308154,                             ! Creation Timestamp
  1366308154,                             ! Version Timestamp
  {7e330e47-cd32-4a8b-b258-fc15231f8512}; ! Name of Object 1

