
OS:Version,
  {e37dd4c6-94ee-47b4-a11f-eb404287a08f}, ! Handle
  0.9.3;                                  ! Version Identifier

OS:SizingPeriod:DesignDay,
  {84b874ca-2071-46ce-80c1-143aaba0e929}, ! Handle
  Fair Field Ann Clg .4% Condns WB=>MDB,  ! Name
  33.2,                                   ! Maximum Dry-Bulb Temperature {C}
  11,                                     ! Daily Dry-Bulb Temperature Range {deltaC}
  27.4,                                   ! Humidity Indicating Conditions at Maximum Dry-Bulb {BasedOnField A3}
  98428,                                  ! Barometric Pressure {Pa}
  4.1,                                    ! Wind Speed {m/s}
  200,                                    ! Wind Direction {deg}
  0,                                      ! Sky Clearness
  0,                                      ! Rain Indicator
  0,                                      ! Snow Indicator
  21,                                     ! Day of Month
  7,                                      ! Month
  SummerDesignDay,                        ! Day Type
  0,                                      ! Daylight Saving Time Indicator
  Wetbulb,                                ! Humidity Indicating Type
  ,                                       ! Humidity Indicating Day Schedule Name
  DefaultMultipliers,                     ! Dry-Bulb Temperature Range Modifier Type
  ,                                       ! Dry-Bulb Temperature Range Modifier Schedule Name
  ASHRAETau,                              ! Solar Model Indicator
  ,                                       ! Beam Solar Day Schedule Name
  ,                                       ! Diffuse Solar Day Schedule Name
  0.444,                                  ! ASHRAE Taub {dimensionless}
  2.09;                                   ! ASHRAE Taud {dimensionless}

OS:ComponentData,
  {7f506ac8-291e-4f7f-b7ff-90ca2c36f9cf}, ! Handle
  Component Data 1,                       ! Name
  {9ccc5129-3c6f-4702-89f7-c0748a5bc922}, ! UUID
  {6e4d8a51-a884-424e-b947-4ffa819258a3}, ! Version UUID
  1366307193,                             ! Creation Timestamp
  1366307193,                             ! Version Timestamp
  {84b874ca-2071-46ce-80c1-143aaba0e929}; ! Name of Object 1

