
OS:Version,
  {69734183-0b85-48a7-9fea-0aed4adaadbc}, ! Handle
  0.9.3;                                  ! Version Identifier

OS:SizingPeriod:DesignDay,
  {66782037-b7ba-40b2-8a97-5f5012e67b5b}, ! Handle
  Burley Municipal Arpt Ann Clg .4% Condns DB=>MWB, ! Name
  34.3,                                   ! Maximum Dry-Bulb Temperature {C}
  16.9,                                   ! Daily Dry-Bulb Temperature Range {deltaC}
  17.7,                                   ! Humidity Indicating Conditions at Maximum Dry-Bulb {BasedOnField A3}
  87002,                                  ! Barometric Pressure {Pa}
  3,                                      ! Wind Speed {m/s}
  270,                                    ! Wind Direction {deg}
  0,                                      ! Sky Clearness
  0,                                      ! Rain Indicator
  0,                                      ! Snow Indicator
  21,                                     ! Day of Month
  7,                                      ! Month
  SummerDesignDay,                        ! Day Type
  0,                                      ! Daylight Saving Time Indicator
  Wetbulb,                                ! Humidity Indicating Type
  ,                                       ! Humidity Indicating Day Schedule Name
  DefaultMultipliers,                     ! Dry-Bulb Temperature Range Modifier Type
  ,                                       ! Dry-Bulb Temperature Range Modifier Schedule Name
  ASHRAETau,                              ! Solar Model Indicator
  ,                                       ! Beam Solar Day Schedule Name
  ,                                       ! Diffuse Solar Day Schedule Name
  0.429,                                  ! ASHRAE Taub {dimensionless}
  1.956;                                  ! ASHRAE Taud {dimensionless}

OS:ComponentData,
  {7c949a6d-c9b7-4e86-a3a0-9c466acba677}, ! Handle
  Component Data 1,                       ! Name
  {94e48cfb-9842-453c-b92d-b3e48f9ffe14}, ! UUID
  {03a9c8c3-5f62-426c-8786-b8c4495e6e1d}, ! Version UUID
  1366307273,                             ! Creation Timestamp
  1366307273,                             ! Version Timestamp
  {66782037-b7ba-40b2-8a97-5f5012e67b5b}; ! Name of Object 1

