
OS:Version,
  {68bc13bb-a0aa-4dd2-ae6d-4c0ec0314809}, ! Handle
  0.9.3;                                  ! Version Identifier

OS:SizingPeriod:DesignDay,
  {14a39f8f-3017-48d1-b892-973d9be3c56d}, ! Handle
  Lake Charles Regional Arpt Ann Htg Wind 99% Condns WS=>MCDB, ! Name
  13.3,                                   ! Maximum Dry-Bulb Temperature {C}
  0,                                      ! Daily Dry-Bulb Temperature Range {deltaC}
  13.3,                                   ! Humidity Indicating Conditions at Maximum Dry-Bulb {BasedOnField A3}
  101265,                                 ! Barometric Pressure {Pa}
  9.8,                                    ! Wind Speed {m/s}
  20,                                     ! Wind Direction {deg}
  0,                                      ! Sky Clearness
  0,                                      ! Rain Indicator
  0,                                      ! Snow Indicator
  21,                                     ! Day of Month
  1,                                      ! Month
  WinterDesignDay,                        ! Day Type
  0,                                      ! Daylight Saving Time Indicator
  Wetbulb,                                ! Humidity Indicating Type
  ,                                       ! Humidity Indicating Day Schedule Name
  DefaultMultipliers,                     ! Dry-Bulb Temperature Range Modifier Type
  ,                                       ! Dry-Bulb Temperature Range Modifier Schedule Name
  ASHRAEClearSky;                         ! Solar Model Indicator

OS:ComponentData,
  {4e53311d-f3bd-4189-be6c-0639e3448a55}, ! Handle
  Component Data 1,                       ! Name
  {06d63962-17f9-4e52-a1cc-2854c3f9c06e}, ! UUID
  {8f9b3ad9-4630-4882-b8d3-d2f5a64e64cb}, ! Version UUID
  1366307731,                             ! Creation Timestamp
  1366307731,                             ! Version Timestamp
  {14a39f8f-3017-48d1-b892-973d9be3c56d}; ! Name of Object 1

