
OS:Version,
  {1c7be6ef-9f05-42fe-bed1-7039fb68f547}, ! Handle
  0.9.3;                                  ! Version Identifier

OS:SizingPeriod:DesignDay,
  {dfe87726-575c-42a7-adf1-1c89645cf419}, ! Handle
  Del Rio/Intl Ap Ann Htg 99.6% Condns DB, ! Name
  -0.7,                                   ! Maximum Dry-Bulb Temperature {C}
  0,                                      ! Daily Dry-Bulb Temperature Range {deltaC}
  -0.7,                                   ! Humidity Indicating Conditions at Maximum Dry-Bulb {BasedOnField A3}
  97458,                                  ! Barometric Pressure {Pa}
  2.5,                                    ! Wind Speed {m/s}
  310,                                    ! Wind Direction {deg}
  0,                                      ! Sky Clearness
  0,                                      ! Rain Indicator
  0,                                      ! Snow Indicator
  21,                                     ! Day of Month
  12,                                     ! Month
  WinterDesignDay,                        ! Day Type
  0,                                      ! Daylight Saving Time Indicator
  Wetbulb,                                ! Humidity Indicating Type
  ,                                       ! Humidity Indicating Day Schedule Name
  DefaultMultipliers,                     ! Dry-Bulb Temperature Range Modifier Type
  ,                                       ! Dry-Bulb Temperature Range Modifier Schedule Name
  ASHRAEClearSky;                         ! Solar Model Indicator

OS:ComponentData,
  {621186d2-a4c9-4cb1-9924-b472513a97a8}, ! Handle
  Component Data 1,                       ! Name
  {bf1022a4-c35b-4cf5-bfa0-059943d8843e}, ! UUID
  {982352e0-0551-4cfa-a55b-ae280ef12bab}, ! Version UUID
  1366310671,                             ! Creation Timestamp
  1366310671,                             ! Version Timestamp
  {dfe87726-575c-42a7-adf1-1c89645cf419}; ! Name of Object 1

