
OS:Version,
  {324d71b0-3262-4703-bacd-008d7d17b136}, ! Handle
  0.9.3;                                  ! Version Identifier

OS:SizingPeriod:DesignDay,
  {4b33a856-0fc1-46e6-a2d2-263bfe24eac9}, ! Handle
  Duluth Ann Clg .4% Condns WB=>MDB,      ! Name
  27.4,                                   ! Maximum Dry-Bulb Temperature {C}
  10.9,                                   ! Daily Dry-Bulb Temperature Range {deltaC}
  22.6,                                   ! Humidity Indicating Conditions at Maximum Dry-Bulb {BasedOnField A3}
  96242,                                  ! Barometric Pressure {Pa}
  5.2,                                    ! Wind Speed {m/s}
  220,                                    ! Wind Direction {deg}
  0,                                      ! Sky Clearness
  0,                                      ! Rain Indicator
  0,                                      ! Snow Indicator
  21,                                     ! Day of Month
  7,                                      ! Month
  SummerDesignDay,                        ! Day Type
  0,                                      ! Daylight Saving Time Indicator
  Wetbulb,                                ! Humidity Indicating Type
  ,                                       ! Humidity Indicating Day Schedule Name
  DefaultMultipliers,                     ! Dry-Bulb Temperature Range Modifier Type
  ,                                       ! Dry-Bulb Temperature Range Modifier Schedule Name
  ASHRAETau,                              ! Solar Model Indicator
  ,                                       ! Beam Solar Day Schedule Name
  ,                                       ! Diffuse Solar Day Schedule Name
  0.398,                                  ! ASHRAE Taub {dimensionless}
  2.218;                                  ! ASHRAE Taud {dimensionless}

OS:ComponentData,
  {fd79c22c-d9c6-4144-ae3d-79064c3a7fde}, ! Handle
  Component Data 1,                       ! Name
  {b67a19ce-db5c-48fd-8c3e-e9c1b1d848a1}, ! UUID
  {b7280061-f1c9-4bbb-b675-dead44755b1c}, ! Version UUID
  1366308202,                             ! Creation Timestamp
  1366308202,                             ! Version Timestamp
  {4b33a856-0fc1-46e6-a2d2-263bfe24eac9}; ! Name of Object 1

