
OS:Version,
  {28e38027-0c64-4dba-be17-709f9d8a6459}, ! Handle
  0.9.3;                                  ! Version Identifier

OS:SizingPeriod:DesignDay,
  {bfe4f582-fe1b-417b-bce3-2930432d3746}, ! Handle
  Crossville Memorial Ap Ann Clg 1% Condns DB=>MWB, ! Name
  30.1,                                   ! Maximum Dry-Bulb Temperature {C}
  10.1,                                   ! Daily Dry-Bulb Temperature Range {deltaC}
  22.3,                                   ! Humidity Indicating Conditions at Maximum Dry-Bulb {BasedOnField A3}
  94674,                                  ! Barometric Pressure {Pa}
  3.1,                                    ! Wind Speed {m/s}
  270,                                    ! Wind Direction {deg}
  0,                                      ! Sky Clearness
  0,                                      ! Rain Indicator
  0,                                      ! Snow Indicator
  21,                                     ! Day of Month
  7,                                      ! Month
  SummerDesignDay,                        ! Day Type
  0,                                      ! Daylight Saving Time Indicator
  Wetbulb,                                ! Humidity Indicating Type
  ,                                       ! Humidity Indicating Day Schedule Name
  DefaultMultipliers,                     ! Dry-Bulb Temperature Range Modifier Type
  ,                                       ! Dry-Bulb Temperature Range Modifier Schedule Name
  ASHRAETau,                              ! Solar Model Indicator
  ,                                       ! Beam Solar Day Schedule Name
  ,                                       ! Diffuse Solar Day Schedule Name
  0.507,                                  ! ASHRAE Taub {dimensionless}
  1.867;                                  ! ASHRAE Taud {dimensionless}

OS:ComponentData,
  {0bec6dcf-f83f-42a6-9f37-64cd028e5ae8}, ! Handle
  Component Data 1,                       ! Name
  {163098ed-88f7-4c39-a423-37db50378649}, ! UUID
  {a89c4102-e7ef-4c4a-b141-96e82b5f1398}, ! Version UUID
  1366310496,                             ! Creation Timestamp
  1366310496,                             ! Version Timestamp
  {bfe4f582-fe1b-417b-bce3-2930432d3746}; ! Name of Object 1

