
OS:Version,
  {2638afa7-2b8b-4666-896e-ad4d79ab4434}, ! Handle
  0.9.3;                                  ! Version Identifier

OS:SizingPeriod:DesignDay,
  {23dc356e-3d9f-47c7-9c41-21e0698e091e}, ! Handle
  Fallon Naas Ann Clg .4% Condns WB=>MDB, ! Name
  34.5,                                   ! Maximum Dry-Bulb Temperature {C}
  19.4,                                   ! Daily Dry-Bulb Temperature Range {deltaC}
  18.2,                                   ! Humidity Indicating Conditions at Maximum Dry-Bulb {BasedOnField A3}
  87726,                                  ! Barometric Pressure {Pa}
  2.7,                                    ! Wind Speed {m/s}
  340,                                    ! Wind Direction {deg}
  0,                                      ! Sky Clearness
  0,                                      ! Rain Indicator
  0,                                      ! Snow Indicator
  21,                                     ! Day of Month
  7,                                      ! Month
  SummerDesignDay,                        ! Day Type
  0,                                      ! Daylight Saving Time Indicator
  Wetbulb,                                ! Humidity Indicating Type
  ,                                       ! Humidity Indicating Day Schedule Name
  DefaultMultipliers,                     ! Dry-Bulb Temperature Range Modifier Type
  ,                                       ! Dry-Bulb Temperature Range Modifier Schedule Name
  ASHRAETau,                              ! Solar Model Indicator
  ,                                       ! Beam Solar Day Schedule Name
  ,                                       ! Diffuse Solar Day Schedule Name
  0.428,                                  ! ASHRAE Taub {dimensionless}
  1.955;                                  ! ASHRAE Taud {dimensionless}

OS:ComponentData,
  {c94fcc77-7869-4490-b8b2-663abfb233d9}, ! Handle
  Component Data 1,                       ! Name
  {ab25ea1b-00a1-4433-b003-470e40422f92}, ! UUID
  {7a1b0502-863c-4558-a1a0-719e7866d39a}, ! Version UUID
  1366309492,                             ! Creation Timestamp
  1366309492,                             ! Version Timestamp
  {23dc356e-3d9f-47c7-9c41-21e0698e091e}; ! Name of Object 1

