
OS:Version,
  {3a59d6f8-b8a6-4220-a5ea-1b3362e1c2cb}, ! Handle
  0.9.3;                                  ! Version Identifier

OS:SizingPeriod:DesignDay,
  {aee041be-22ad-4735-b411-b7afebc0dc6c}, ! Handle
  Long Beach Daugherty Fld Ann Clg 1% Condns Enth=>MDB, ! Name
  27.4,                                   ! Maximum Dry-Bulb Temperature {C}
  9.5,                                    ! Daily Dry-Bulb Temperature Range {deltaC}
  63100,                                  ! Humidity Indicating Conditions at Maximum Dry-Bulb {BasedOnField A3}
  101229,                                 ! Barometric Pressure {Pa}
  4.1,                                    ! Wind Speed {m/s}
  280,                                    ! Wind Direction {deg}
  0,                                      ! Sky Clearness
  0,                                      ! Rain Indicator
  0,                                      ! Snow Indicator
  21,                                     ! Day of Month
  8,                                      ! Month
  SummerDesignDay,                        ! Day Type
  0,                                      ! Daylight Saving Time Indicator
  Enthalpy,                               ! Humidity Indicating Type
  ,                                       ! Humidity Indicating Day Schedule Name
  DefaultMultipliers,                     ! Dry-Bulb Temperature Range Modifier Type
  ,                                       ! Dry-Bulb Temperature Range Modifier Schedule Name
  ASHRAETau,                              ! Solar Model Indicator
  ,                                       ! Beam Solar Day Schedule Name
  ,                                       ! Diffuse Solar Day Schedule Name
  0.45,                                   ! ASHRAE Taub {dimensionless}
  2.074;                                  ! ASHRAE Taud {dimensionless}

OS:ComponentData,
  {d69ed151-7007-4bda-b8c5-aeec3839db69}, ! Handle
  Component Data 1,                       ! Name
  {01ca6cbe-9710-4945-aaf3-5fd34d001954}, ! UUID
  {12034797-4a70-42ed-8c4c-fa7f9849ac25}, ! Version UUID
  1366306473,                             ! Creation Timestamp
  1366306473,                             ! Version Timestamp
  {aee041be-22ad-4735-b411-b7afebc0dc6c}; ! Name of Object 1

