
OS:Version,
  {c5b4725c-78db-47cf-9942-b13dd042fb79}, ! Handle
  0.9.3;                                  ! Version Identifier

OS:SizingPeriod:DesignDay,
  {e40bdcd6-9feb-4cf1-83bf-b874cf9b9186}, ! Handle
  Fairbanks/Int'l Airpor Ann Clg 1% Condns Enth=>MDB, ! Name
  23,                                     ! Maximum Dry-Bulb Temperature {C}
  10.2,                                   ! Daily Dry-Bulb Temperature Range {deltaC}
  46100,                                  ! Humidity Indicating Conditions at Maximum Dry-Bulb {BasedOnField A3}
  99678,                                  ! Barometric Pressure {Pa}
  3.1,                                    ! Wind Speed {m/s}
  180,                                    ! Wind Direction {deg}
  0,                                      ! Sky Clearness
  0,                                      ! Rain Indicator
  0,                                      ! Snow Indicator
  21,                                     ! Day of Month
  7,                                      ! Month
  SummerDesignDay,                        ! Day Type
  0,                                      ! Daylight Saving Time Indicator
  Enthalpy,                               ! Humidity Indicating Type
  ,                                       ! Humidity Indicating Day Schedule Name
  DefaultMultipliers,                     ! Dry-Bulb Temperature Range Modifier Type
  ,                                       ! Dry-Bulb Temperature Range Modifier Schedule Name
  ASHRAETau,                              ! Solar Model Indicator
  ,                                       ! Beam Solar Day Schedule Name
  ,                                       ! Diffuse Solar Day Schedule Name
  0.387,                                  ! ASHRAE Taub {dimensionless}
  2.212;                                  ! ASHRAE Taud {dimensionless}

OS:ComponentData,
  {c57c4a7a-8695-4e87-a475-30c63eb0a7ae}, ! Handle
  Component Data 1,                       ! Name
  {5536cf03-65fc-4059-8826-2f41574512fb}, ! UUID
  {85854ae4-832e-4e08-9139-bff657203a2a}, ! Version UUID
  1366305259,                             ! Creation Timestamp
  1366305259,                             ! Version Timestamp
  {e40bdcd6-9feb-4cf1-83bf-b874cf9b9186}; ! Name of Object 1

