
OS:Version,
  {91177ddc-6a0b-4312-9714-a70b54ecaf15}, ! Handle
  0.9.3;                                  ! Version Identifier

OS:SizingPeriod:DesignDay,
  {13f24b58-7954-4c4f-a2c6-a24b76dd6123}, ! Handle
  Lewiston Nez Perce Cnty Ap Ann Clg .4% Condns WB=>MDB, ! Name
  33.4,                                   ! Maximum Dry-Bulb Temperature {C}
  15,                                     ! Daily Dry-Bulb Temperature Range {deltaC}
  19.8,                                   ! Humidity Indicating Conditions at Maximum Dry-Bulb {BasedOnField A3}
  96173,                                  ! Barometric Pressure {Pa}
  3,                                      ! Wind Speed {m/s}
  320,                                    ! Wind Direction {deg}
  0,                                      ! Sky Clearness
  0,                                      ! Rain Indicator
  0,                                      ! Snow Indicator
  21,                                     ! Day of Month
  7,                                      ! Month
  SummerDesignDay,                        ! Day Type
  0,                                      ! Daylight Saving Time Indicator
  Wetbulb,                                ! Humidity Indicating Type
  ,                                       ! Humidity Indicating Day Schedule Name
  DefaultMultipliers,                     ! Dry-Bulb Temperature Range Modifier Type
  ,                                       ! Dry-Bulb Temperature Range Modifier Schedule Name
  ASHRAETau,                              ! Solar Model Indicator
  ,                                       ! Beam Solar Day Schedule Name
  ,                                       ! Diffuse Solar Day Schedule Name
  0.393,                                  ! ASHRAE Taub {dimensionless}
  2.242;                                  ! ASHRAE Taud {dimensionless}

OS:ComponentData,
  {9b8628b7-3bc8-4ee0-b746-cbfb19d10fa0}, ! Handle
  Component Data 1,                       ! Name
  {bcfb947e-62c1-4b4c-8940-b3845aaae51e}, ! UUID
  {408a9fa8-99fe-440a-b705-c8fb23ab251b}, ! Version UUID
  1366307292,                             ! Creation Timestamp
  1366307292,                             ! Version Timestamp
  {13f24b58-7954-4c4f-a2c6-a24b76dd6123}; ! Name of Object 1

