
OS:Version,
  {f4bccc81-f0e1-4506-a7d1-b8054af90dd5}, ! Handle
  0.9.3;                                  ! Version Identifier

OS:SizingPeriod:DesignDay,
  {cbb1b190-2185-4dcc-bbc7-05898a60bbc7}, ! Handle
  Greer/Greenville Ann Clg 2% Condns Enth=>MDB, ! Name
  29.5,                                   ! Maximum Dry-Bulb Temperature {C}
  10.6,                                   ! Daily Dry-Bulb Temperature Range {deltaC}
  73100,                                  ! Humidity Indicating Conditions at Maximum Dry-Bulb {BasedOnField A3}
  97819,                                  ! Barometric Pressure {Pa}
  3.6,                                    ! Wind Speed {m/s}
  230,                                    ! Wind Direction {deg}
  0,                                      ! Sky Clearness
  0,                                      ! Rain Indicator
  0,                                      ! Snow Indicator
  21,                                     ! Day of Month
  7,                                      ! Month
  SummerDesignDay,                        ! Day Type
  0,                                      ! Daylight Saving Time Indicator
  Enthalpy,                               ! Humidity Indicating Type
  ,                                       ! Humidity Indicating Day Schedule Name
  DefaultMultipliers,                     ! Dry-Bulb Temperature Range Modifier Type
  ,                                       ! Dry-Bulb Temperature Range Modifier Schedule Name
  ASHRAETau,                              ! Solar Model Indicator
  ,                                       ! Beam Solar Day Schedule Name
  ,                                       ! Diffuse Solar Day Schedule Name
  0.545,                                  ! ASHRAE Taub {dimensionless}
  1.796;                                  ! ASHRAE Taud {dimensionless}

OS:ComponentData,
  {026355f7-0f75-455c-befa-b424db1e77aa}, ! Handle
  Component Data 1,                       ! Name
  {14b85f2d-796e-4715-88f1-1ad9559b84ee}, ! UUID
  {cbbfaea7-4dbc-4ce9-a547-bc349e8583cf}, ! Version UUID
  1366310364,                             ! Creation Timestamp
  1366310364,                             ! Version Timestamp
  {cbb1b190-2185-4dcc-bbc7-05898a60bbc7}; ! Name of Object 1

