
OS:Version,
  {77e34ae7-2e52-40fc-875b-86c693af4c59}, ! Handle
  0.9.3;                                  ! Version Identifier

OS:SizingPeriod:DesignDay,
  {5b35ade4-7127-4a16-9859-8d8436088868}, ! Handle
  Greenwood Leflore Arpt Ann Clg 1% Condns DB=>MWB, ! Name
  34.4,                                   ! Maximum Dry-Bulb Temperature {C}
  10.5,                                   ! Daily Dry-Bulb Temperature Range {deltaC}
  25.2,                                   ! Humidity Indicating Conditions at Maximum Dry-Bulb {BasedOnField A3}
  100762,                                 ! Barometric Pressure {Pa}
  2.9,                                    ! Wind Speed {m/s}
  230,                                    ! Wind Direction {deg}
  0,                                      ! Sky Clearness
  0,                                      ! Rain Indicator
  0,                                      ! Snow Indicator
  21,                                     ! Day of Month
  7,                                      ! Month
  SummerDesignDay,                        ! Day Type
  0,                                      ! Daylight Saving Time Indicator
  Wetbulb,                                ! Humidity Indicating Type
  ,                                       ! Humidity Indicating Day Schedule Name
  DefaultMultipliers,                     ! Dry-Bulb Temperature Range Modifier Type
  ,                                       ! Dry-Bulb Temperature Range Modifier Schedule Name
  ASHRAETau,                              ! Solar Model Indicator
  ,                                       ! Beam Solar Day Schedule Name
  ,                                       ! Diffuse Solar Day Schedule Name
  0.551,                                  ! ASHRAE Taub {dimensionless}
  1.802;                                  ! ASHRAE Taud {dimensionless}

OS:ComponentData,
  {37b1aff0-8349-4970-9733-df91fc1074b9}, ! Handle
  Component Data 1,                       ! Name
  {e5e1d141-a237-4fc4-a7a2-287c931e4d8c}, ! UUID
  {3763d8ef-b085-4c6e-b437-a72d3495c976}, ! Version UUID
  1366308626,                             ! Creation Timestamp
  1366308626,                             ! Version Timestamp
  {5b35ade4-7127-4a16-9859-8d8436088868}; ! Name of Object 1

