
OS:Version,
  {13e4681b-37c8-464d-819d-4bf4fccd3eec}, ! Handle
  0.9.3;                                  ! Version Identifier

OS:SizingPeriod:DesignDay,
  {8b6a9f59-b68c-41a9-bec4-2d11290d06fc}, ! Handle
  Detroit Willow Run Ap Ann Clg 2% Condns WB=>MDB, ! Name
  27.6,                                   ! Maximum Dry-Bulb Temperature {C}
  11.2,                                   ! Daily Dry-Bulb Temperature Range {deltaC}
  23,                                     ! Humidity Indicating Conditions at Maximum Dry-Bulb {BasedOnField A3}
  98733,                                  ! Barometric Pressure {Pa}
  5.3,                                    ! Wind Speed {m/s}
  230,                                    ! Wind Direction {deg}
  0,                                      ! Sky Clearness
  0,                                      ! Rain Indicator
  0,                                      ! Snow Indicator
  21,                                     ! Day of Month
  7,                                      ! Month
  SummerDesignDay,                        ! Day Type
  0,                                      ! Daylight Saving Time Indicator
  Wetbulb,                                ! Humidity Indicating Type
  ,                                       ! Humidity Indicating Day Schedule Name
  DefaultMultipliers,                     ! Dry-Bulb Temperature Range Modifier Type
  ,                                       ! Dry-Bulb Temperature Range Modifier Schedule Name
  ASHRAETau,                              ! Solar Model Indicator
  ,                                       ! Beam Solar Day Schedule Name
  ,                                       ! Diffuse Solar Day Schedule Name
  0.465,                                  ! ASHRAE Taub {dimensionless}
  1.99;                                   ! ASHRAE Taud {dimensionless}

OS:ComponentData,
  {4fa530d8-ca16-4b33-8bc1-3f960c39e6c8}, ! Handle
  Component Data 1,                       ! Name
  {5d850ca3-c934-46ce-a43f-595060605385}, ! UUID
  {97c77c21-32fc-4de2-af95-510bfd0a0d82}, ! Version UUID
  1366307984,                             ! Creation Timestamp
  1366307984,                             ! Version Timestamp
  {8b6a9f59-b68c-41a9-bec4-2d11290d06fc}; ! Name of Object 1

