
OS:Version,
  {e173a243-d5d6-447b-abab-557df95301bf}, ! Handle
  0.9.3;                                  ! Version Identifier

OS:SizingPeriod:DesignDay,
  {5b2e4c8e-4e38-49e6-a9ba-88be5d87d0eb}, ! Handle
  Langley Afb Ann Clg 1% Condns Enth=>MDB, ! Name
  30.6,                                   ! Maximum Dry-Bulb Temperature {C}
  8.3,                                    ! Daily Dry-Bulb Temperature Range {deltaC}
  80400,                                  ! Humidity Indicating Conditions at Maximum Dry-Bulb {BasedOnField A3}
  101289,                                 ! Barometric Pressure {Pa}
  4.2,                                    ! Wind Speed {m/s}
  240,                                    ! Wind Direction {deg}
  0,                                      ! Sky Clearness
  0,                                      ! Rain Indicator
  0,                                      ! Snow Indicator
  21,                                     ! Day of Month
  7,                                      ! Month
  SummerDesignDay,                        ! Day Type
  0,                                      ! Daylight Saving Time Indicator
  Enthalpy,                               ! Humidity Indicating Type
  ,                                       ! Humidity Indicating Day Schedule Name
  DefaultMultipliers,                     ! Dry-Bulb Temperature Range Modifier Type
  ,                                       ! Dry-Bulb Temperature Range Modifier Schedule Name
  ASHRAETau,                              ! Solar Model Indicator
  ,                                       ! Beam Solar Day Schedule Name
  ,                                       ! Diffuse Solar Day Schedule Name
  0.596,                                  ! ASHRAE Taub {dimensionless}
  1.685;                                  ! ASHRAE Taud {dimensionless}

OS:ComponentData,
  {5b72e2b1-2beb-43c0-b8d0-29b9ffe8805a}, ! Handle
  Component Data 1,                       ! Name
  {b607ceec-45a6-446d-a2e5-6451d62df103}, ! UUID
  {b346a074-7d0d-4123-8254-dad589d93c29}, ! Version UUID
  1366311072,                             ! Creation Timestamp
  1366311072,                             ! Version Timestamp
  {5b2e4c8e-4e38-49e6-a9ba-88be5d87d0eb}; ! Name of Object 1

