
OS:Version,
  {a23b3d31-0185-4955-bac7-72a154bd591b}, ! Handle
  0.9.3;                                  ! Version Identifier

OS:SizingPeriod:DesignDay,
  {1eeddb6e-435b-4eec-8a78-9dbd15a083ad}, ! Handle
  KEY_WEST Ann Clg 1% Condns Enth=>MDB,   ! Name
  30.7,                                   ! Maximum Dry-Bulb Temperature {C}
  5.1,                                    ! Daily Dry-Bulb Temperature Range {deltaC}
  84400,                                  ! Humidity Indicating Conditions at Maximum Dry-Bulb {BasedOnField A3}
  101313,                                 ! Barometric Pressure {Pa}
  4,                                      ! Wind Speed {m/s}
  150,                                    ! Wind Direction {deg}
  0,                                      ! Sky Clearness
  0,                                      ! Rain Indicator
  0,                                      ! Snow Indicator
  21,                                     ! Day of Month
  8,                                      ! Month
  SummerDesignDay,                        ! Day Type
  0,                                      ! Daylight Saving Time Indicator
  Enthalpy,                               ! Humidity Indicating Type
  ,                                       ! Humidity Indicating Day Schedule Name
  DefaultMultipliers,                     ! Dry-Bulb Temperature Range Modifier Type
  ,                                       ! Dry-Bulb Temperature Range Modifier Schedule Name
  ASHRAETau,                              ! Solar Model Indicator
  ,                                       ! Beam Solar Day Schedule Name
  ,                                       ! Diffuse Solar Day Schedule Name
  0.461,                                  ! ASHRAE Taub {dimensionless}
  2.194;                                  ! ASHRAE Taud {dimensionless}

