
OS:Version,
  {d809bb7a-60c9-4598-9e3f-cc3727c3a76e}, ! Handle
  0.9.3;                                  ! Version Identifier

OS:SizingPeriod:DesignDay,
  {c7dce301-93f7-4fca-8a4a-0fb8304687f1}, ! Handle
  Asheville Ann Clg 1% Condns Enth=>MDB,  ! Name
  27.7,                                   ! Maximum Dry-Bulb Temperature {C}
  10.7,                                   ! Daily Dry-Bulb Temperature Range {deltaC}
  70500,                                  ! Humidity Indicating Conditions at Maximum Dry-Bulb {BasedOnField A3}
  93632,                                  ! Barometric Pressure {Pa}
  3.8,                                    ! Wind Speed {m/s}
  340,                                    ! Wind Direction {deg}
  0,                                      ! Sky Clearness
  0,                                      ! Rain Indicator
  0,                                      ! Snow Indicator
  21,                                     ! Day of Month
  7,                                      ! Month
  SummerDesignDay,                        ! Day Type
  0,                                      ! Daylight Saving Time Indicator
  Enthalpy,                               ! Humidity Indicating Type
  ,                                       ! Humidity Indicating Day Schedule Name
  DefaultMultipliers,                     ! Dry-Bulb Temperature Range Modifier Type
  ,                                       ! Dry-Bulb Temperature Range Modifier Schedule Name
  ASHRAETau,                              ! Solar Model Indicator
  ,                                       ! Beam Solar Day Schedule Name
  ,                                       ! Diffuse Solar Day Schedule Name
  0.517,                                  ! ASHRAE Taub {dimensionless}
  1.849;                                  ! ASHRAE Taud {dimensionless}

OS:ComponentData,
  {db46c157-ebbf-4c98-bf41-5123e36d24c0}, ! Handle
  Component Data 1,                       ! Name
  {a16eed27-7ef0-4052-ab9e-bfe2300e2c57}, ! UUID
  {622bde56-647e-4ceb-99b3-1916000bab17}, ! Version UUID
  1366308865,                             ! Creation Timestamp
  1366308865,                             ! Version Timestamp
  {c7dce301-93f7-4fca-8a4a-0fb8304687f1}; ! Name of Object 1

