
OS:Version,
  {ec28a686-3568-4ebe-aaf8-34f1ccec13f3}, ! Handle
  0.9.3;                                  ! Version Identifier

OS:SizingPeriod:DesignDay,
  {c0b8c48d-5657-45d6-80a6-7ee69d729857}, ! Handle
  Block Island State Arpt Ann Clg .4% Condns WB=>MDB, ! Name
  26,                                     ! Maximum Dry-Bulb Temperature {C}
  6.7,                                    ! Daily Dry-Bulb Temperature Range {deltaC}
  23.4,                                   ! Humidity Indicating Conditions at Maximum Dry-Bulb {BasedOnField A3}
  100917,                                 ! Barometric Pressure {Pa}
  5.2,                                    ! Wind Speed {m/s}
  240,                                    ! Wind Direction {deg}
  0,                                      ! Sky Clearness
  0,                                      ! Rain Indicator
  0,                                      ! Snow Indicator
  21,                                     ! Day of Month
  7,                                      ! Month
  SummerDesignDay,                        ! Day Type
  0,                                      ! Daylight Saving Time Indicator
  Wetbulb,                                ! Humidity Indicating Type
  ,                                       ! Humidity Indicating Day Schedule Name
  DefaultMultipliers,                     ! Dry-Bulb Temperature Range Modifier Type
  ,                                       ! Dry-Bulb Temperature Range Modifier Schedule Name
  ASHRAETau,                              ! Solar Model Indicator
  ,                                       ! Beam Solar Day Schedule Name
  ,                                       ! Diffuse Solar Day Schedule Name
  0.522,                                  ! ASHRAE Taub {dimensionless}
  1.856;                                  ! ASHRAE Taud {dimensionless}

OS:ComponentData,
  {2b3428aa-51fe-46b4-8bd6-74fe121d70a4}, ! Handle
  Component Data 1,                       ! Name
  {15dc055e-f4a3-4ead-9c90-1520de110fb4}, ! UUID
  {19d2b9f3-64e5-4075-9a7b-b869b25e6b41}, ! Version UUID
  1366310289,                             ! Creation Timestamp
  1366310289,                             ! Version Timestamp
  {c0b8c48d-5657-45d6-80a6-7ee69d729857}; ! Name of Object 1

