
OS:Version,
  {58cde8cb-6956-4537-addf-468e76d82e51}, ! Handle
  0.9.3;                                  ! Version Identifier

OS:SizingPeriod:DesignDay,
  {b4786034-316e-40b0-a95a-90171ef02754}, ! Handle
  Detroit Metropolitan Arpt Ann Clg 2% Condns Enth=>MDB, ! Name
  27.6,                                   ! Maximum Dry-Bulb Temperature {C}
  10.4,                                   ! Daily Dry-Bulb Temperature Range {deltaC}
  69000,                                  ! Humidity Indicating Conditions at Maximum Dry-Bulb {BasedOnField A3}
  99016,                                  ! Barometric Pressure {Pa}
  5.9,                                    ! Wind Speed {m/s}
  240,                                    ! Wind Direction {deg}
  0,                                      ! Sky Clearness
  0,                                      ! Rain Indicator
  0,                                      ! Snow Indicator
  21,                                     ! Day of Month
  7,                                      ! Month
  SummerDesignDay,                        ! Day Type
  0,                                      ! Daylight Saving Time Indicator
  Enthalpy,                               ! Humidity Indicating Type
  ,                                       ! Humidity Indicating Day Schedule Name
  DefaultMultipliers,                     ! Dry-Bulb Temperature Range Modifier Type
  ,                                       ! Dry-Bulb Temperature Range Modifier Schedule Name
  ASHRAETau,                              ! Solar Model Indicator
  ,                                       ! Beam Solar Day Schedule Name
  ,                                       ! Diffuse Solar Day Schedule Name
  0.47,                                   ! ASHRAE Taub {dimensionless}
  1.978;                                  ! ASHRAE Taud {dimensionless}

