
OS:Version,
  {1081fa69-c64b-4c14-ab2d-2a0489d22610}, ! Handle
  0.9.3;                                  ! Version Identifier

OS:SizingPeriod:DesignDay,
  {89298b3c-2527-44c9-8a3a-e4323164ae3a}, ! Handle
  DODGE_CITY Ann Htg Wind 99% Condns WS=>MCDB, ! Name
  2.6,                                    ! Maximum Dry-Bulb Temperature {C}
  0,                                      ! Daily Dry-Bulb Temperature Range {deltaC}
  2.6,                                    ! Humidity Indicating Conditions at Maximum Dry-Bulb {BasedOnField A3}
  92221,                                  ! Barometric Pressure {Pa}
  13.5,                                   ! Wind Speed {m/s}
  0,                                      ! Wind Direction {deg}
  0,                                      ! Sky Clearness
  0,                                      ! Rain Indicator
  0,                                      ! Snow Indicator
  21,                                     ! Day of Month
  1,                                      ! Month
  WinterDesignDay,                        ! Day Type
  0,                                      ! Daylight Saving Time Indicator
  Wetbulb,                                ! Humidity Indicating Type
  ,                                       ! Humidity Indicating Day Schedule Name
  DefaultMultipliers,                     ! Dry-Bulb Temperature Range Modifier Type
  ,                                       ! Dry-Bulb Temperature Range Modifier Schedule Name
  ASHRAEClearSky;                         ! Solar Model Indicator

OS:ComponentData,
  {bc5c5400-21d2-4c01-a7ab-ef771dc39ba3}, ! Handle
  Component Data 1,                       ! Name
  {506dbb34-d039-49b2-8382-b2209bd18cb5}, ! UUID
  {90d7f420-4544-4cf3-9676-efa856ddc4eb}, ! Version UUID
  1366307504,                             ! Creation Timestamp
  1366307504,                             ! Version Timestamp
  {89298b3c-2527-44c9-8a3a-e4323164ae3a}; ! Name of Object 1

