
OS:Version,
  {affa35c8-357c-4046-bdbf-e84532368e12}, ! Handle
  0.9.3;                                  ! Version Identifier

OS:SizingPeriod:DesignDay,
  {28c18d73-9d7f-4652-bfb8-6fc3ea83a6e0}, ! Handle
  Detroit City Airport Ann Htg Wind 99% Condns WS=>MCDB, ! Name
  -3.4,                                   ! Maximum Dry-Bulb Temperature {C}
  0,                                      ! Daily Dry-Bulb Temperature Range {deltaC}
  -3.4,                                   ! Humidity Indicating Conditions at Maximum Dry-Bulb {BasedOnField A3}
  99063,                                  ! Barometric Pressure {Pa}
  10.1,                                   ! Wind Speed {m/s}
  250,                                    ! Wind Direction {deg}
  0,                                      ! Sky Clearness
  0,                                      ! Rain Indicator
  0,                                      ! Snow Indicator
  21,                                     ! Day of Month
  1,                                      ! Month
  WinterDesignDay,                        ! Day Type
  0,                                      ! Daylight Saving Time Indicator
  Wetbulb,                                ! Humidity Indicating Type
  ,                                       ! Humidity Indicating Day Schedule Name
  DefaultMultipliers,                     ! Dry-Bulb Temperature Range Modifier Type
  ,                                       ! Dry-Bulb Temperature Range Modifier Schedule Name
  ASHRAEClearSky;                         ! Solar Model Indicator

