
OS:Version,
  {ed964cd0-c897-432b-850b-665cac322631}, ! Handle
  0.9.3;                                  ! Version Identifier

OS:SizingPeriod:DesignDay,
  {b0ea9440-49c2-4b6a-9b11-3f9f307c552b}, ! Handle
  COVINGTON Ann Htg Wind 99% Condns WS=>MCDB, ! Name
  0.1,                                    ! Maximum Dry-Bulb Temperature {C}
  0,                                      ! Daily Dry-Bulb Temperature Range {deltaC}
  0.1,                                    ! Humidity Indicating Conditions at Maximum Dry-Bulb {BasedOnField A3}
  98112,                                  ! Barometric Pressure {Pa}
  11,                                     ! Wind Speed {m/s}
  280,                                    ! Wind Direction {deg}
  0,                                      ! Sky Clearness
  0,                                      ! Rain Indicator
  0,                                      ! Snow Indicator
  21,                                     ! Day of Month
  1,                                      ! Month
  WinterDesignDay,                        ! Day Type
  0,                                      ! Daylight Saving Time Indicator
  Wetbulb,                                ! Humidity Indicating Type
  ,                                       ! Humidity Indicating Day Schedule Name
  DefaultMultipliers,                     ! Dry-Bulb Temperature Range Modifier Type
  ,                                       ! Dry-Bulb Temperature Range Modifier Schedule Name
  ASHRAEClearSky;                         ! Solar Model Indicator

OS:ComponentData,
  {dd534e57-8bd5-4b73-bcbd-3bbdf576705c}, ! Handle
  Component Data 1,                       ! Name
  {d5cda086-e6db-48fe-9b33-4684994dc9ae}, ! UUID
  {f90e075f-fa0d-473a-8249-f7e366a1cc68}, ! Version UUID
  1366307624,                             ! Creation Timestamp
  1366307624,                             ! Version Timestamp
  {b0ea9440-49c2-4b6a-9b11-3f9f307c552b}; ! Name of Object 1

