
OS:Version,
  {6233d8b9-f865-46f7-b42a-0fdf7f7863a0}, ! Handle
  0.9.3;                                  ! Version Identifier

OS:SizingPeriod:DesignDay,
  {26e91bef-4fd2-49dd-bae7-bd0a8260b75e}, ! Handle
  Hillsville Ann Clg 2% Condns DB=>MWB,   ! Name
  27.5,                                   ! Maximum Dry-Bulb Temperature {C}
  9.1,                                    ! Daily Dry-Bulb Temperature Range {deltaC}
  21.1,                                   ! Humidity Indicating Conditions at Maximum Dry-Bulb {BasedOnField A3}
  91699,                                  ! Barometric Pressure {Pa}
  3,                                      ! Wind Speed {m/s}
  290,                                    ! Wind Direction {deg}
  0,                                      ! Sky Clearness
  0,                                      ! Rain Indicator
  0,                                      ! Snow Indicator
  21,                                     ! Day of Month
  7,                                      ! Month
  SummerDesignDay,                        ! Day Type
  0,                                      ! Daylight Saving Time Indicator
  Wetbulb,                                ! Humidity Indicating Type
  ,                                       ! Humidity Indicating Day Schedule Name
  DefaultMultipliers,                     ! Dry-Bulb Temperature Range Modifier Type
  ,                                       ! Dry-Bulb Temperature Range Modifier Schedule Name
  ASHRAETau,                              ! Solar Model Indicator
  ,                                       ! Beam Solar Day Schedule Name
  ,                                       ! Diffuse Solar Day Schedule Name
  0.495,                                  ! ASHRAE Taub {dimensionless}
  1.877;                                  ! ASHRAE Taud {dimensionless}

OS:ComponentData,
  {cb4c1c47-8ab2-4560-831a-6f19f10e9f9e}, ! Handle
  Component Data 1,                       ! Name
  {5ccc5caf-6c2d-4cef-83ff-85fcdf1e9cfc}, ! UUID
  {96310e91-7749-49df-b1a6-07f01002e74e}, ! Version UUID
  1366311059,                             ! Creation Timestamp
  1366311059,                             ! Version Timestamp
  {26e91bef-4fd2-49dd-bae7-bd0a8260b75e}; ! Name of Object 1

