
OS:Version,
  {1aa29341-ea66-4949-ab05-b69fba0da614}, ! Handle
  0.9.3;                                  ! Version Identifier

OS:SizingPeriod:DesignDay,
  {97fb8117-12d3-4ee1-bdf7-e3183d29c081}, ! Handle
  Berlin Municipal Ann Htg Wind 99% Condns WS=>MCDB, ! Name
  -8.5,                                   ! Maximum Dry-Bulb Temperature {C}
  0,                                      ! Daily Dry-Bulb Temperature Range {deltaC}
  -8.5,                                   ! Humidity Indicating Conditions at Maximum Dry-Bulb {BasedOnField A3}
  97156,                                  ! Barometric Pressure {Pa}
  8.4,                                    ! Wind Speed {m/s}
  290,                                    ! Wind Direction {deg}
  0,                                      ! Sky Clearness
  0,                                      ! Rain Indicator
  0,                                      ! Snow Indicator
  21,                                     ! Day of Month
  1,                                      ! Month
  WinterDesignDay,                        ! Day Type
  0,                                      ! Daylight Saving Time Indicator
  Wetbulb,                                ! Humidity Indicating Type
  ,                                       ! Humidity Indicating Day Schedule Name
  DefaultMultipliers,                     ! Dry-Bulb Temperature Range Modifier Type
  ,                                       ! Dry-Bulb Temperature Range Modifier Schedule Name
  ASHRAEClearSky;                         ! Solar Model Indicator

OS:ComponentData,
  {4da91ccf-339a-47ee-b558-7fa934c6db95}, ! Handle
  Component Data 1,                       ! Name
  {75862fe5-26d2-4b9c-bb91-0d72f2df334e}, ! UUID
  {c3239da9-5f9b-4ac6-8396-bd059a9a1b90}, ! Version UUID
  1366309214,                             ! Creation Timestamp
  1366309214,                             ! Version Timestamp
  {97fb8117-12d3-4ee1-bdf7-e3183d29c081}; ! Name of Object 1

