
OS:Version,
  {e6facc98-3a50-49bc-ae21-98299c5a669a}, ! Handle
  0.9.3;                                  ! Version Identifier

OS:SizingPeriod:DesignDay,
  {5849bc75-bfc0-4490-960f-3cd0d5cef50c}, ! Handle
  Knoxville Ann Hum_n 99.6% Condns DP=>MCDB, ! Name
  -6.5,                                   ! Maximum Dry-Bulb Temperature {C}
  0,                                      ! Daily Dry-Bulb Temperature Range {deltaC}
  -16,                                    ! Humidity Indicating Conditions at Maximum Dry-Bulb {BasedOnField A3}
  97784,                                  ! Barometric Pressure {Pa}
  2.8,                                    ! Wind Speed {m/s}
  20,                                     ! Wind Direction {deg}
  0,                                      ! Sky Clearness
  0,                                      ! Rain Indicator
  0,                                      ! Snow Indicator
  21,                                     ! Day of Month
  1,                                      ! Month
  WinterDesignDay,                        ! Day Type
  0,                                      ! Daylight Saving Time Indicator
  Dewpoint,                               ! Humidity Indicating Type
  ,                                       ! Humidity Indicating Day Schedule Name
  DefaultMultipliers,                     ! Dry-Bulb Temperature Range Modifier Type
  ,                                       ! Dry-Bulb Temperature Range Modifier Schedule Name
  ASHRAEClearSky;                         ! Solar Model Indicator

OS:ComponentData,
  {17d3dc1a-356c-4fef-ba2b-c8ce22abb81c}, ! Handle
  Component Data 1,                       ! Name
  {f09557e6-a398-4bf5-a20f-cf0abb155006}, ! UUID
  {36fef5a7-e804-433b-9a67-821fdfa25554}, ! Version UUID
  1366310508,                             ! Creation Timestamp
  1366310508,                             ! Version Timestamp
  {5849bc75-bfc0-4490-960f-3cd0d5cef50c}; ! Name of Object 1

