
OS:Version,
  {84245149-bad4-40b6-9260-a1401ecd6039}, ! Handle
  0.9.3;                                  ! Version Identifier

OS:SizingPeriod:DesignDay,
  {0cb52066-f05e-4999-b84b-3689dd485d70}, ! Handle
  Aspen Pitkin Co Sar Ann Clg 2% Condns DP=>MDB, ! Name
  15,                                     ! Maximum Dry-Bulb Temperature {C}
  17.4,                                   ! Daily Dry-Bulb Temperature Range {deltaC}
  10.9,                                   ! Humidity Indicating Conditions at Maximum Dry-Bulb {BasedOnField A3}
  75209,                                  ! Barometric Pressure {Pa}
  4,                                      ! Wind Speed {m/s}
  350,                                    ! Wind Direction {deg}
  0,                                      ! Sky Clearness
  0,                                      ! Rain Indicator
  0,                                      ! Snow Indicator
  21,                                     ! Day of Month
  7,                                      ! Month
  SummerDesignDay,                        ! Day Type
  0,                                      ! Daylight Saving Time Indicator
  Dewpoint,                               ! Humidity Indicating Type
  ,                                       ! Humidity Indicating Day Schedule Name
  DefaultMultipliers,                     ! Dry-Bulb Temperature Range Modifier Type
  ,                                       ! Dry-Bulb Temperature Range Modifier Schedule Name
  ASHRAETau,                              ! Solar Model Indicator
  ,                                       ! Beam Solar Day Schedule Name
  ,                                       ! Diffuse Solar Day Schedule Name
  0.374,                                  ! ASHRAE Taub {dimensionless}
  2.235;                                  ! ASHRAE Taud {dimensionless}

OS:ComponentData,
  {1491983a-9f5a-4870-a9c7-a370b13d3c2b}, ! Handle
  Component Data 1,                       ! Name
  {1c7e0d78-28a4-433a-a9ba-46c9cd653eb0}, ! UUID
  {76b0e0f5-7a29-43d3-bf4c-3fb90156556e}, ! Version UUID
  1366306651,                             ! Creation Timestamp
  1366306651,                             ! Version Timestamp
  {0cb52066-f05e-4999-b84b-3689dd485d70}; ! Name of Object 1

