
OS:Version,
  {9f04aa4c-771c-4c78-9ff1-b59e2b1b1a84}, ! Handle
  0.9.3;                                  ! Version Identifier

OS:SizingPeriod:DesignDay,
  {c64809a1-991b-4336-999f-2f2ccad8c6c9}, ! Handle
  Aspen Pitkin Co Sar Ann Clg 2% Condns DP=>MDB, ! Name
  15,                                     ! Maximum Dry-Bulb Temperature {C}
  17.4,                                   ! Daily Dry-Bulb Temperature Range {deltaC}
  10.9,                                   ! Humidity Indicating Conditions at Maximum Dry-Bulb {BasedOnField A3}
  75209,                                  ! Barometric Pressure {Pa}
  4,                                      ! Wind Speed {m/s}
  350,                                    ! Wind Direction {deg}
  0,                                      ! Sky Clearness
  0,                                      ! Rain Indicator
  0,                                      ! Snow Indicator
  21,                                     ! Day of Month
  7,                                      ! Month
  SummerDesignDay,                        ! Day Type
  0,                                      ! Daylight Saving Time Indicator
  Dewpoint,                               ! Humidity Indicating Type
  ,                                       ! Humidity Indicating Day Schedule Name
  DefaultMultipliers,                     ! Dry-Bulb Temperature Range Modifier Type
  ,                                       ! Dry-Bulb Temperature Range Modifier Schedule Name
  ASHRAETau,                              ! Solar Model Indicator
  ,                                       ! Beam Solar Day Schedule Name
  ,                                       ! Diffuse Solar Day Schedule Name
  0.374,                                  ! ASHRAE Taub {dimensionless}
  2.235;                                  ! ASHRAE Taud {dimensionless}

