
OS:Version,
  {62248441-3352-4102-bf99-b520ac9c1ad8}, ! Handle
  0.9.3;                                  ! Version Identifier

OS:SizingPeriod:DesignDay,
  {24a01034-cabe-4dd5-8c34-a2e90189ac7e}, ! Handle
  Fremont Muni Arpt Ann Clg 2% Condns DB=>MWB, ! Name
  31.3,                                   ! Maximum Dry-Bulb Temperature {C}
  10.5,                                   ! Daily Dry-Bulb Temperature Range {deltaC}
  22.2,                                   ! Humidity Indicating Conditions at Maximum Dry-Bulb {BasedOnField A3}
  96854,                                  ! Barometric Pressure {Pa}
  5.4,                                    ! Wind Speed {m/s}
  170,                                    ! Wind Direction {deg}
  0,                                      ! Sky Clearness
  0,                                      ! Rain Indicator
  0,                                      ! Snow Indicator
  21,                                     ! Day of Month
  7,                                      ! Month
  SummerDesignDay,                        ! Day Type
  0,                                      ! Daylight Saving Time Indicator
  Wetbulb,                                ! Humidity Indicating Type
  ,                                       ! Humidity Indicating Day Schedule Name
  DefaultMultipliers,                     ! Dry-Bulb Temperature Range Modifier Type
  ,                                       ! Dry-Bulb Temperature Range Modifier Schedule Name
  ASHRAETau,                              ! Solar Model Indicator
  ,                                       ! Beam Solar Day Schedule Name
  ,                                       ! Diffuse Solar Day Schedule Name
  0.415,                                  ! ASHRAE Taub {dimensionless}
  2.218;                                  ! ASHRAE Taud {dimensionless}

OS:ComponentData,
  {bd1769d0-5d51-4999-bf13-110936c326a5}, ! Handle
  Component Data 1,                       ! Name
  {94fbcf3c-935e-44bc-ad9b-deb107a1ba57}, ! UUID
  {104de11a-49c6-4265-a350-6a3e44beefd0}, ! Version UUID
  1366309104,                             ! Creation Timestamp
  1366309104,                             ! Version Timestamp
  {24a01034-cabe-4dd5-8c34-a2e90189ac7e}; ! Name of Object 1

