
OS:Version,
  {2353fb98-c7bb-49cb-9347-8eb3db21182b}, ! Handle
  0.9.3;                                  ! Version Identifier

OS:SizingPeriod:DesignDay,
  {f6ff406d-db5b-443e-a49a-10dda928bac8}, ! Handle
  Ironwood  Awos Ann Clg 2% Condns WB=>MDB, ! Name
  25.3,                                   ! Maximum Dry-Bulb Temperature {C}
  11.7,                                   ! Daily Dry-Bulb Temperature Range {deltaC}
  20.1,                                   ! Humidity Indicating Conditions at Maximum Dry-Bulb {BasedOnField A3}
  96900,                                  ! Barometric Pressure {Pa}
  4.7,                                    ! Wind Speed {m/s}
  200,                                    ! Wind Direction {deg}
  0,                                      ! Sky Clearness
  0,                                      ! Rain Indicator
  0,                                      ! Snow Indicator
  21,                                     ! Day of Month
  7,                                      ! Month
  SummerDesignDay,                        ! Day Type
  0,                                      ! Daylight Saving Time Indicator
  Wetbulb,                                ! Humidity Indicating Type
  ,                                       ! Humidity Indicating Day Schedule Name
  DefaultMultipliers,                     ! Dry-Bulb Temperature Range Modifier Type
  ,                                       ! Dry-Bulb Temperature Range Modifier Schedule Name
  ASHRAETau,                              ! Solar Model Indicator
  ,                                       ! Beam Solar Day Schedule Name
  ,                                       ! Diffuse Solar Day Schedule Name
  0.402,                                  ! ASHRAE Taub {dimensionless}
  2.215;                                  ! ASHRAE Taud {dimensionless}

OS:ComponentData,
  {08a74009-66d2-442a-9e5d-eb0b229f9bd6}, ! Handle
  Component Data 1,                       ! Name
  {db88a5ca-5683-40e4-8e73-dc5ea6876717}, ! UUID
  {139c7db8-06a3-4ed4-b7fa-7d9c20dffaeb}, ! Version UUID
  1366308041,                             ! Creation Timestamp
  1366308041,                             ! Version Timestamp
  {f6ff406d-db5b-443e-a49a-10dda928bac8}; ! Name of Object 1

