
OS:Version,
  {0bd54410-19fb-43c5-be83-432f831d5a05}, ! Handle
  0.9.3;                                  ! Version Identifier

OS:SizingPeriod:DesignDay,
  {9967ba95-fd55-4a48-9832-1fb519d5ef69}, ! Handle
  Fargo Ann Htg Wind 99.6% Condns WS=>MCDB, ! Name
  -12.6,                                  ! Maximum Dry-Bulb Temperature {C}
  0,                                      ! Daily Dry-Bulb Temperature Range {deltaC}
  -12.6,                                  ! Humidity Indicating Conditions at Maximum Dry-Bulb {BasedOnField A3}
  98076,                                  ! Barometric Pressure {Pa}
  15.8,                                   ! Wind Speed {m/s}
  200,                                    ! Wind Direction {deg}
  0,                                      ! Sky Clearness
  0,                                      ! Rain Indicator
  0,                                      ! Snow Indicator
  21,                                     ! Day of Month
  1,                                      ! Month
  WinterDesignDay,                        ! Day Type
  0,                                      ! Daylight Saving Time Indicator
  Wetbulb,                                ! Humidity Indicating Type
  ,                                       ! Humidity Indicating Day Schedule Name
  DefaultMultipliers,                     ! Dry-Bulb Temperature Range Modifier Type
  ,                                       ! Dry-Bulb Temperature Range Modifier Schedule Name
  ASHRAEClearSky;                         ! Solar Model Indicator

OS:ComponentData,
  {4be08582-4d7b-4ab2-89f8-478706931208}, ! Handle
  Component Data 1,                       ! Name
  {2986ee4f-3637-433b-a352-b410f7a6c618}, ! UUID
  {acf2e80d-3b4c-436e-b5cc-1c4b4061fc59}, ! Version UUID
  1366309023,                             ! Creation Timestamp
  1366309023,                             ! Version Timestamp
  {9967ba95-fd55-4a48-9832-1fb519d5ef69}; ! Name of Object 1

