
OS:Version,
  {091a0f82-b91d-4be3-b657-da721eccc8ee}, ! Handle
  0.9.3;                                  ! Version Identifier

OS:SizingPeriod:DesignDay,
  {8fa78209-6309-4a42-8c21-bf9faddb6980}, ! Handle
  BRIDGEPORT Ann Htg 99% Condns DB,       ! Name
  -9.2,                                   ! Maximum Dry-Bulb Temperature {C}
  0,                                      ! Daily Dry-Bulb Temperature Range {deltaC}
  -9.2,                                   ! Humidity Indicating Conditions at Maximum Dry-Bulb {BasedOnField A3}
  101301,                                 ! Barometric Pressure {Pa}
  5.2,                                    ! Wind Speed {m/s}
  350,                                    ! Wind Direction {deg}
  0,                                      ! Sky Clearness
  0,                                      ! Rain Indicator
  0,                                      ! Snow Indicator
  21,                                     ! Day of Month
  1,                                      ! Month
  WinterDesignDay,                        ! Day Type
  0,                                      ! Daylight Saving Time Indicator
  Wetbulb,                                ! Humidity Indicating Type
  ,                                       ! Humidity Indicating Day Schedule Name
  DefaultMultipliers,                     ! Dry-Bulb Temperature Range Modifier Type
  ,                                       ! Dry-Bulb Temperature Range Modifier Schedule Name
  ASHRAEClearSky;                         ! Solar Model Indicator

OS:ComponentData,
  {ef6b873d-ea1e-4e80-89e0-caf80c1830a8}, ! Handle
  Component Data 1,                       ! Name
  {5e9a41ca-b3bf-4246-bfe5-31da53619b1d}, ! UUID
  {930b7d4d-0665-4df5-a9d7-df13c019c446}, ! Version UUID
  1366306748,                             ! Creation Timestamp
  1366306748,                             ! Version Timestamp
  {8fa78209-6309-4a42-8c21-bf9faddb6980}; ! Name of Object 1

