
OS:Version,
  {0c6cceb3-90cd-408f-9e95-b915468df79b}, ! Handle
  0.9.3;                                  ! Version Identifier

OS:SizingPeriod:DesignDay,
  {5c62dbe7-c435-409f-8aa1-d8c87326d70a}, ! Handle
  Camp Mabry Ann Htg Wind 99% Condns WS=>MCDB, ! Name
  8.7,                                    ! Maximum Dry-Bulb Temperature {C}
  0,                                      ! Daily Dry-Bulb Temperature Range {deltaC}
  8.7,                                    ! Humidity Indicating Conditions at Maximum Dry-Bulb {BasedOnField A3}
  98969,                                  ! Barometric Pressure {Pa}
  9.9,                                    ! Wind Speed {m/s}
  10,                                     ! Wind Direction {deg}
  0,                                      ! Sky Clearness
  0,                                      ! Rain Indicator
  0,                                      ! Snow Indicator
  21,                                     ! Day of Month
  1,                                      ! Month
  WinterDesignDay,                        ! Day Type
  0,                                      ! Daylight Saving Time Indicator
  Wetbulb,                                ! Humidity Indicating Type
  ,                                       ! Humidity Indicating Day Schedule Name
  DefaultMultipliers,                     ! Dry-Bulb Temperature Range Modifier Type
  ,                                       ! Dry-Bulb Temperature Range Modifier Schedule Name
  ASHRAEClearSky;                         ! Solar Model Indicator

OS:ComponentData,
  {6244d8a3-89d6-48d0-b0f7-8cef13b0934c}, ! Handle
  Component Data 1,                       ! Name
  {e14a4517-3275-4e6e-95b4-c27ce51980c0}, ! UUID
  {fddef9bd-32f6-4c30-bb04-ea4957d54e4a}, ! Version UUID
  1366310577,                             ! Creation Timestamp
  1366310577,                             ! Version Timestamp
  {5c62dbe7-c435-409f-8aa1-d8c87326d70a}; ! Name of Object 1

