
OS:Version,
  {3764a991-4a95-41b9-86fc-4c025ef7390d}, ! Handle
  0.9.3;                                  ! Version Identifier

OS:SizingPeriod:DesignDay,
  {53526b5c-63ea-41b0-8e73-bd8582784e43}, ! Handle
  Aurora Buckley Field Angb Ann Hum_n 99.6% Condns DP=>MCDB, ! Name
  -14.5,                                  ! Maximum Dry-Bulb Temperature {C}
  0,                                      ! Daily Dry-Bulb Temperature Range {deltaC}
  -22.6,                                  ! Humidity Indicating Conditions at Maximum Dry-Bulb {BasedOnField A3}
  82237,                                  ! Barometric Pressure {Pa}
  2.5,                                    ! Wind Speed {m/s}
  180,                                    ! Wind Direction {deg}
  0,                                      ! Sky Clearness
  0,                                      ! Rain Indicator
  0,                                      ! Snow Indicator
  21,                                     ! Day of Month
  12,                                     ! Month
  WinterDesignDay,                        ! Day Type
  0,                                      ! Daylight Saving Time Indicator
  Dewpoint,                               ! Humidity Indicating Type
  ,                                       ! Humidity Indicating Day Schedule Name
  DefaultMultipliers,                     ! Dry-Bulb Temperature Range Modifier Type
  ,                                       ! Dry-Bulb Temperature Range Modifier Schedule Name
  ASHRAEClearSky;                         ! Solar Model Indicator

OS:ComponentData,
  {b2de8975-7696-45d5-86a0-9d4b6420281d}, ! Handle
  Component Data 1,                       ! Name
  {58c79244-3ab4-49b4-998c-d592f0f66ff7}, ! UUID
  {72dfc113-bc06-4630-957d-d9c4183082ff}, ! Version UUID
  1366306653,                             ! Creation Timestamp
  1366306653,                             ! Version Timestamp
  {53526b5c-63ea-41b0-8e73-bd8582784e43}; ! Name of Object 1

