
OS:Version,
  {ed0f7ad9-a535-4123-9cf6-0fe4115b8536}, ! Handle
  0.9.3;                                  ! Version Identifier

OS:SizingPeriod:DesignDay,
  {6a438eb3-453b-4cb4-84e1-4904a9f7f2f6}, ! Handle
  BUFFALO Ann Hum_n 99% Condns DP=>MCDB,  ! Name
  -13.2,                                  ! Maximum Dry-Bulb Temperature {C}
  0,                                      ! Daily Dry-Bulb Temperature Range {deltaC}
  -18.3,                                  ! Humidity Indicating Conditions at Maximum Dry-Bulb {BasedOnField A3}
  98769,                                  ! Barometric Pressure {Pa}
  5.1,                                    ! Wind Speed {m/s}
  270,                                    ! Wind Direction {deg}
  0,                                      ! Sky Clearness
  0,                                      ! Rain Indicator
  0,                                      ! Snow Indicator
  21,                                     ! Day of Month
  1,                                      ! Month
  WinterDesignDay,                        ! Day Type
  0,                                      ! Daylight Saving Time Indicator
  Dewpoint,                               ! Humidity Indicating Type
  ,                                       ! Humidity Indicating Day Schedule Name
  DefaultMultipliers,                     ! Dry-Bulb Temperature Range Modifier Type
  ,                                       ! Dry-Bulb Temperature Range Modifier Schedule Name
  ASHRAEClearSky;                         ! Solar Model Indicator

OS:ComponentData,
  {3a5eed77-f595-49c3-8eab-339e506d771c}, ! Handle
  Component Data 1,                       ! Name
  {925314c6-7106-444c-aae1-57993393787f}, ! UUID
  {bdfb8b7f-26e0-474a-98cc-24ea24feaf0a}, ! Version UUID
  1366309612,                             ! Creation Timestamp
  1366309612,                             ! Version Timestamp
  {6a438eb3-453b-4cb4-84e1-4904a9f7f2f6}; ! Name of Object 1

