
OS:Version,
  {fdcea368-5f4e-4568-a723-1d6be9ebf6f8}, ! Handle
  0.9.3;                                  ! Version Identifier

OS:SizingPeriod:DesignDay,
  {4696c64c-a80a-457d-99f1-9ed960904b44}, ! Handle
  DULUTH Ann Clg .4% Condns WB=>MDB,      ! Name
  27.4,                                   ! Maximum Dry-Bulb Temperature {C}
  10.9,                                   ! Daily Dry-Bulb Temperature Range {deltaC}
  22.6,                                   ! Humidity Indicating Conditions at Maximum Dry-Bulb {BasedOnField A3}
  96242,                                  ! Barometric Pressure {Pa}
  5.2,                                    ! Wind Speed {m/s}
  220,                                    ! Wind Direction {deg}
  0,                                      ! Sky Clearness
  0,                                      ! Rain Indicator
  0,                                      ! Snow Indicator
  21,                                     ! Day of Month
  7,                                      ! Month
  SummerDesignDay,                        ! Day Type
  0,                                      ! Daylight Saving Time Indicator
  Wetbulb,                                ! Humidity Indicating Type
  ,                                       ! Humidity Indicating Day Schedule Name
  DefaultMultipliers,                     ! Dry-Bulb Temperature Range Modifier Type
  ,                                       ! Dry-Bulb Temperature Range Modifier Schedule Name
  ASHRAETau,                              ! Solar Model Indicator
  ,                                       ! Beam Solar Day Schedule Name
  ,                                       ! Diffuse Solar Day Schedule Name
  0.398,                                  ! ASHRAE Taub {dimensionless}
  2.218;                                  ! ASHRAE Taud {dimensionless}

OS:ComponentData,
  {f2319309-7485-427b-bdb4-95be09be77e1}, ! Handle
  Component Data 1,                       ! Name
  {fff1a1d5-f354-4e00-9297-6d5ace4ba292}, ! UUID
  {3ff13fb4-2c28-4259-9704-6e16906b61f3}, ! Version UUID
  1366308198,                             ! Creation Timestamp
  1366308198,                             ! Version Timestamp
  {4696c64c-a80a-457d-99f1-9ed960904b44}; ! Name of Object 1

