
OS:Version,
  {a9fa07e3-df91-4946-aeff-b149cd32df2d}, ! Handle
  0.9.3;                                  ! Version Identifier

OS:SizingPeriod:DesignDay,
  {0f16ec4d-6145-4114-b697-a743001a799d}, ! Handle
  COLUMBUS Ann Clg .4% Condns Enth=>MDB,  ! Name
  32.2,                                   ! Maximum Dry-Bulb Temperature {C}
  10.1,                                   ! Daily Dry-Bulb Temperature Range {deltaC}
  79600,                                  ! Humidity Indicating Conditions at Maximum Dry-Bulb {BasedOnField A3}
  99702,                                  ! Barometric Pressure {Pa}
  3.7,                                    ! Wind Speed {m/s}
  270,                                    ! Wind Direction {deg}
  0,                                      ! Sky Clearness
  0,                                      ! Rain Indicator
  0,                                      ! Snow Indicator
  21,                                     ! Day of Month
  7,                                      ! Month
  SummerDesignDay,                        ! Day Type
  0,                                      ! Daylight Saving Time Indicator
  Enthalpy,                               ! Humidity Indicating Type
  ,                                       ! Humidity Indicating Day Schedule Name
  DefaultMultipliers,                     ! Dry-Bulb Temperature Range Modifier Type
  ,                                       ! Dry-Bulb Temperature Range Modifier Schedule Name
  ASHRAETau,                              ! Solar Model Indicator
  ,                                       ! Beam Solar Day Schedule Name
  ,                                       ! Diffuse Solar Day Schedule Name
  0.564,                                  ! ASHRAE Taub {dimensionless}
  1.778;                                  ! ASHRAE Taud {dimensionless}

OS:ComponentData,
  {c15512dd-54d1-4144-b0d8-08a040477f99}, ! Handle
  Component Data 1,                       ! Name
  {8785a9bc-454f-4e3b-9b7e-a6ead494eefe}, ! UUID
  {658fd7ee-5eb8-49b4-9da2-bb4df26aead5}, ! Version UUID
  1366307001,                             ! Creation Timestamp
  1366307001,                             ! Version Timestamp
  {0f16ec4d-6145-4114-b697-a743001a799d}; ! Name of Object 1

