
OS:Version,
  {7168e5c8-0220-4ed0-af35-a259f2e902ce}, ! Handle
  0.9.3;                                  ! Version Identifier

OS:SizingPeriod:DesignDay,
  {b5be98f7-7357-474c-9c1b-69190e68eb09}, ! Handle
  ABILENE Ann Clg 1% Condns DB=>MWB,      ! Name
  36.2,                                   ! Maximum Dry-Bulb Temperature {C}
  11.6,                                   ! Daily Dry-Bulb Temperature Range {deltaC}
  21.5,                                   ! Humidity Indicating Conditions at Maximum Dry-Bulb {BasedOnField A3}
  95072,                                  ! Barometric Pressure {Pa}
  5.3,                                    ! Wind Speed {m/s}
  160,                                    ! Wind Direction {deg}
  0,                                      ! Sky Clearness
  0,                                      ! Rain Indicator
  0,                                      ! Snow Indicator
  21,                                     ! Day of Month
  7,                                      ! Month
  SummerDesignDay,                        ! Day Type
  0,                                      ! Daylight Saving Time Indicator
  Wetbulb,                                ! Humidity Indicating Type
  ,                                       ! Humidity Indicating Day Schedule Name
  DefaultMultipliers,                     ! Dry-Bulb Temperature Range Modifier Type
  ,                                       ! Dry-Bulb Temperature Range Modifier Schedule Name
  ASHRAETau,                              ! Solar Model Indicator
  ,                                       ! Beam Solar Day Schedule Name
  ,                                       ! Diffuse Solar Day Schedule Name
  0.426,                                  ! ASHRAE Taub {dimensionless}
  2.172;                                  ! ASHRAE Taud {dimensionless}

OS:ComponentData,
  {28b1013d-89b4-42b7-9a61-0160c12b81e0}, ! Handle
  Component Data 1,                       ! Name
  {43923b0e-e762-4da0-a2ee-866f91e4a4bf}, ! UUID
  {e4bb80ff-acec-49ef-b0d4-3f318bd53378}, ! Version UUID
  1366310550,                             ! Creation Timestamp
  1366310550,                             ! Version Timestamp
  {b5be98f7-7357-474c-9c1b-69190e68eb09}; ! Name of Object 1

