
OS:Version,
  {7cc47808-3702-4543-93d7-ffe87ca50c27}, ! Handle
  0.9.3;                                  ! Version Identifier

OS:SizingPeriod:DesignDay,
  {bab4186d-a19c-4ffa-a7a9-cdb51597faa2}, ! Handle
  ANCHORAGE Ann Clg .4% Condns WB=>MDB,   ! Name
  20.5,                                   ! Maximum Dry-Bulb Temperature {C}
  6.6,                                    ! Daily Dry-Bulb Temperature Range {deltaC}
  15.7,                                   ! Humidity Indicating Conditions at Maximum Dry-Bulb {BasedOnField A3}
  100905,                                 ! Barometric Pressure {Pa}
  3.6,                                    ! Wind Speed {m/s}
  300,                                    ! Wind Direction {deg}
  0,                                      ! Sky Clearness
  0,                                      ! Rain Indicator
  0,                                      ! Snow Indicator
  21,                                     ! Day of Month
  7,                                      ! Month
  SummerDesignDay,                        ! Day Type
  0,                                      ! Daylight Saving Time Indicator
  Wetbulb,                                ! Humidity Indicating Type
  ,                                       ! Humidity Indicating Day Schedule Name
  DefaultMultipliers,                     ! Dry-Bulb Temperature Range Modifier Type
  ,                                       ! Dry-Bulb Temperature Range Modifier Schedule Name
  ASHRAETau,                              ! Solar Model Indicator
  ,                                       ! Beam Solar Day Schedule Name
  ,                                       ! Diffuse Solar Day Schedule Name
  0.387,                                  ! ASHRAE Taub {dimensionless}
  2.172;                                  ! ASHRAE Taud {dimensionless}

OS:ComponentData,
  {ef298dc6-7cf4-4e4a-a3f7-74b91e0f5857}, ! Handle
  Component Data 1,                       ! Name
  {c8e4fca6-8363-4b41-b120-c4e3ddfb2480}, ! UUID
  {15c1888b-aca6-4fe4-9ebc-d90d5a66da8c}, ! Version UUID
  1366304704,                             ! Creation Timestamp
  1366304704,                             ! Version Timestamp
  {bab4186d-a19c-4ffa-a7a9-cdb51597faa2}; ! Name of Object 1

