
OS:Version,
  {b1962f54-fa81-478b-b434-322c7a6505a4}, ! Handle
  0.9.3;                                  ! Version Identifier

OS:SizingPeriod:DesignDay,
  {2e60b245-9742-49b2-8622-16fd6a678bba}, ! Handle
  Cherry Point MCAS Ann Clg 2% Condns DP=>MDB, ! Name
  28.3,                                   ! Maximum Dry-Bulb Temperature {C}
  8.7,                                    ! Daily Dry-Bulb Temperature Range {deltaC}
  24.4,                                   ! Humidity Indicating Conditions at Maximum Dry-Bulb {BasedOnField A3}
  101193,                                 ! Barometric Pressure {Pa}
  3.4,                                    ! Wind Speed {m/s}
  210,                                    ! Wind Direction {deg}
  0,                                      ! Sky Clearness
  0,                                      ! Rain Indicator
  0,                                      ! Snow Indicator
  21,                                     ! Day of Month
  7,                                      ! Month
  SummerDesignDay,                        ! Day Type
  0,                                      ! Daylight Saving Time Indicator
  Dewpoint,                               ! Humidity Indicating Type
  ,                                       ! Humidity Indicating Day Schedule Name
  DefaultMultipliers,                     ! Dry-Bulb Temperature Range Modifier Type
  ,                                       ! Dry-Bulb Temperature Range Modifier Schedule Name
  ASHRAETau,                              ! Solar Model Indicator
  ,                                       ! Beam Solar Day Schedule Name
  ,                                       ! Diffuse Solar Day Schedule Name
  0.581,                                  ! ASHRAE Taub {dimensionless}
  1.748;                                  ! ASHRAE Taud {dimensionless}

OS:ComponentData,
  {fec7f8b7-d65d-4219-ae25-2329ac176fdf}, ! Handle
  Component Data 1,                       ! Name
  {dbaada0d-cc9b-4aa1-b8c6-9bea07862367}, ! UUID
  {2e8e6c6a-d6da-421f-b574-6c63b5b6c4ae}, ! Version UUID
  1366308898,                             ! Creation Timestamp
  1366308898,                             ! Version Timestamp
  {2e60b245-9742-49b2-8622-16fd6a678bba}; ! Name of Object 1

