
OS:Version,
  {ff93bf9f-13fd-402f-b408-49e835cd2a0a}, ! Handle
  0.9.3;                                  ! Version Identifier

OS:SizingPeriod:DesignDay,
  {1f2b40cd-9749-459c-8c63-0bf844d41f6a}, ! Handle
  Helena Regional Airport Ann Hum_n 99% Condns DP=>MCDB, ! Name
  -21.7,                                  ! Maximum Dry-Bulb Temperature {C}
  0,                                      ! Daily Dry-Bulb Temperature Range {deltaC}
  -26.1,                                  ! Humidity Indicating Conditions at Maximum Dry-Bulb {BasedOnField A3}
  88069,                                  ! Barometric Pressure {Pa}
  1.6,                                    ! Wind Speed {m/s}
  300,                                    ! Wind Direction {deg}
  0,                                      ! Sky Clearness
  0,                                      ! Rain Indicator
  0,                                      ! Snow Indicator
  21,                                     ! Day of Month
  12,                                     ! Month
  WinterDesignDay,                        ! Day Type
  0,                                      ! Daylight Saving Time Indicator
  Dewpoint,                               ! Humidity Indicating Type
  ,                                       ! Humidity Indicating Day Schedule Name
  DefaultMultipliers,                     ! Dry-Bulb Temperature Range Modifier Type
  ,                                       ! Dry-Bulb Temperature Range Modifier Schedule Name
  ASHRAEClearSky;                         ! Solar Model Indicator

OS:ComponentData,
  {6e56b5d2-ca11-4477-b6a2-29be121baca4}, ! Handle
  Component Data 1,                       ! Name
  {657164df-ac20-4711-9cbb-641efd55ec41}, ! UUID
  {f00feb08-595a-4cfe-a43c-e9e57752374d}, ! Version UUID
  1366308797,                             ! Creation Timestamp
  1366308797,                             ! Version Timestamp
  {1f2b40cd-9749-459c-8c63-0bf844d41f6a}; ! Name of Object 1

