
OS:Version,
  {a78b1bcc-febe-462d-98fc-f0bb6c8f6e78}, ! Handle
  0.9.3;                                  ! Version Identifier

OS:SizingPeriod:DesignDay,
  {bf51f791-a80b-483d-9bb5-b533e04d8208}, ! Handle
  Bethel Ann Hum_n 99% Condns DP=>MCDB,   ! Name
  -29.4,                                  ! Maximum Dry-Bulb Temperature {C}
  0,                                      ! Daily Dry-Bulb Temperature Range {deltaC}
  -33.8,                                  ! Humidity Indicating Conditions at Maximum Dry-Bulb {BasedOnField A3}
  100774,                                 ! Barometric Pressure {Pa}
  4.1,                                    ! Wind Speed {m/s}
  20,                                     ! Wind Direction {deg}
  0,                                      ! Sky Clearness
  0,                                      ! Rain Indicator
  0,                                      ! Snow Indicator
  21,                                     ! Day of Month
  1,                                      ! Month
  WinterDesignDay,                        ! Day Type
  0,                                      ! Daylight Saving Time Indicator
  Dewpoint,                               ! Humidity Indicating Type
  ,                                       ! Humidity Indicating Day Schedule Name
  DefaultMultipliers,                     ! Dry-Bulb Temperature Range Modifier Type
  ,                                       ! Dry-Bulb Temperature Range Modifier Schedule Name
  ASHRAEClearSky;                         ! Solar Model Indicator

OS:ComponentData,
  {b49405f4-d919-44bd-af3c-ee0f231c0541}, ! Handle
  Component Data 1,                       ! Name
  {d9b4c07f-eb28-421f-bd75-65a7009d074a}, ! UUID
  {e9817ba1-089e-45c9-9b8b-bbf0b5cf4f47}, ! Version UUID
  1366304750,                             ! Creation Timestamp
  1366304750,                             ! Version Timestamp
  {bf51f791-a80b-483d-9bb5-b533e04d8208}; ! Name of Object 1

