
OS:Version,
  {e78b583e-263b-4850-81bb-c439753ab6c4}, ! Handle
  0.9.3;                                  ! Version Identifier

OS:SizingPeriod:DesignDay,
  {4aaf34f2-ab94-43e0-89d8-d5a0d91a4e44}, ! Handle
  Hartford/Brainard Fiel Ann Clg 1% Condns Enth=>MDB, ! Name
  28.8,                                   ! Maximum Dry-Bulb Temperature {C}
  11.4,                                   ! Daily Dry-Bulb Temperature Range {deltaC}
  71000,                                  ! Humidity Indicating Conditions at Maximum Dry-Bulb {BasedOnField A3}
  101253,                                 ! Barometric Pressure {Pa}
  4.5,                                    ! Wind Speed {m/s}
  220,                                    ! Wind Direction {deg}
  0,                                      ! Sky Clearness
  0,                                      ! Rain Indicator
  0,                                      ! Snow Indicator
  21,                                     ! Day of Month
  7,                                      ! Month
  SummerDesignDay,                        ! Day Type
  0,                                      ! Daylight Saving Time Indicator
  Enthalpy,                               ! Humidity Indicating Type
  ,                                       ! Humidity Indicating Day Schedule Name
  DefaultMultipliers,                     ! Dry-Bulb Temperature Range Modifier Type
  ,                                       ! Dry-Bulb Temperature Range Modifier Schedule Name
  ASHRAETau,                              ! Solar Model Indicator
  ,                                       ! Beam Solar Day Schedule Name
  ,                                       ! Diffuse Solar Day Schedule Name
  0.486,                                  ! ASHRAE Taub {dimensionless}
  1.943;                                  ! ASHRAE Taud {dimensionless}

OS:ComponentData,
  {b5aeecbb-e1b8-461d-acc5-2b5a683acf03}, ! Handle
  Component Data 1,                       ! Name
  {aed86028-1213-43ed-b2b6-35526190d846}, ! UUID
  {022e87df-10ca-484c-815e-e88b716422a0}, ! Version UUID
  1366306755,                             ! Creation Timestamp
  1366306755,                             ! Version Timestamp
  {4aaf34f2-ab94-43e0-89d8-d5a0d91a4e44}; ! Name of Object 1

