
OS:Version,
  {f0661565-9534-4dcd-bc95-6f4fd4bf6591}, ! Handle
  0.9.3;                                  ! Version Identifier

OS:SizingPeriod:DesignDay,
  {1030d163-b8e6-49ae-a5ec-974072f56817}, ! Handle
  Louisville Ann Clg .4% Condns DP=>MDB,  ! Name
  29.3,                                   ! Maximum Dry-Bulb Temperature {C}
  9.7,                                    ! Daily Dry-Bulb Temperature Range {deltaC}
  24.3,                                   ! Humidity Indicating Conditions at Maximum Dry-Bulb {BasedOnField A3}
  99548,                                  ! Barometric Pressure {Pa}
  4.2,                                    ! Wind Speed {m/s}
  240,                                    ! Wind Direction {deg}
  0,                                      ! Sky Clearness
  0,                                      ! Rain Indicator
  0,                                      ! Snow Indicator
  21,                                     ! Day of Month
  7,                                      ! Month
  SummerDesignDay,                        ! Day Type
  0,                                      ! Daylight Saving Time Indicator
  Dewpoint,                               ! Humidity Indicating Type
  ,                                       ! Humidity Indicating Day Schedule Name
  DefaultMultipliers,                     ! Dry-Bulb Temperature Range Modifier Type
  ,                                       ! Dry-Bulb Temperature Range Modifier Schedule Name
  ASHRAETau,                              ! Solar Model Indicator
  ,                                       ! Beam Solar Day Schedule Name
  ,                                       ! Diffuse Solar Day Schedule Name
  0.51,                                   ! ASHRAE Taub {dimensionless}
  1.872;                                  ! ASHRAE Taud {dimensionless}

OS:ComponentData,
  {11e4413c-fa3b-4a88-bc12-a3246469fdb6}, ! Handle
  Component Data 1,                       ! Name
  {ccb051b5-ab00-4523-b3ae-94e1dba7c8c9}, ! UUID
  {bb7ee888-9215-4729-8cb7-7334cc0628fc}, ! Version UUID
  1366307668,                             ! Creation Timestamp
  1366307668,                             ! Version Timestamp
  {1030d163-b8e6-49ae-a5ec-974072f56817}; ! Name of Object 1

