
OS:Version,
  {763e7adb-e3e1-472b-b5ec-464c202a63b2}, ! Handle
  0.9.3;                                  ! Version Identifier

OS:SizingPeriod:DesignDay,
  {cf566727-2e62-4061-8e1f-72d753092f7d}, ! Handle
  Coeur D Alene Awos Ann Clg 1% Condns Enth=>MDB, ! Name
  28.7,                                   ! Maximum Dry-Bulb Temperature {C}
  15.6,                                   ! Daily Dry-Bulb Temperature Range {deltaC}
  52500,                                  ! Humidity Indicating Conditions at Maximum Dry-Bulb {BasedOnField A3}
  93115,                                  ! Barometric Pressure {Pa}
  2.8,                                    ! Wind Speed {m/s}
  250,                                    ! Wind Direction {deg}
  0,                                      ! Sky Clearness
  0,                                      ! Rain Indicator
  0,                                      ! Snow Indicator
  21,                                     ! Day of Month
  7,                                      ! Month
  SummerDesignDay,                        ! Day Type
  0,                                      ! Daylight Saving Time Indicator
  Enthalpy,                               ! Humidity Indicating Type
  ,                                       ! Humidity Indicating Day Schedule Name
  DefaultMultipliers,                     ! Dry-Bulb Temperature Range Modifier Type
  ,                                       ! Dry-Bulb Temperature Range Modifier Schedule Name
  ASHRAETau,                              ! Solar Model Indicator
  ,                                       ! Beam Solar Day Schedule Name
  ,                                       ! Diffuse Solar Day Schedule Name
  0.345,                                  ! ASHRAE Taub {dimensionless}
  2.481;                                  ! ASHRAE Taud {dimensionless}

OS:ComponentData,
  {cd405113-d41d-470b-825c-6adf8ae5e036}, ! Handle
  Component Data 1,                       ! Name
  {a0fd762e-0c20-4c81-99b9-841b285dfb6c}, ! UUID
  {e4fec87b-6b95-479f-bfe7-65c0f2d0073f}, ! Version UUID
  1366307281,                             ! Creation Timestamp
  1366307281,                             ! Version Timestamp
  {cf566727-2e62-4061-8e1f-72d753092f7d}; ! Name of Object 1

