
OS:Version,
  {2d4c82ce-fd11-4b01-a3eb-ebbf31776c29}, ! Handle
  0.9.3;                                  ! Version Identifier

OS:SizingPeriod:DesignDay,
  {b204b291-6881-4f9a-ae7d-9f567a6bfb03}, ! Handle
  BARROW Ann Htg 99.6% Condns DB,         ! Name
  -40.5,                                  ! Maximum Dry-Bulb Temperature {C}
  0,                                      ! Daily Dry-Bulb Temperature Range {deltaC}
  -40.5,                                  ! Humidity Indicating Conditions at Maximum Dry-Bulb {BasedOnField A3}
  101277,                                 ! Barometric Pressure {Pa}
  3.5,                                    ! Wind Speed {m/s}
  230,                                    ! Wind Direction {deg}
  0,                                      ! Sky Clearness
  0,                                      ! Rain Indicator
  0,                                      ! Snow Indicator
  21,                                     ! Day of Month
  2,                                      ! Month
  WinterDesignDay,                        ! Day Type
  0,                                      ! Daylight Saving Time Indicator
  Wetbulb,                                ! Humidity Indicating Type
  ,                                       ! Humidity Indicating Day Schedule Name
  DefaultMultipliers,                     ! Dry-Bulb Temperature Range Modifier Type
  ,                                       ! Dry-Bulb Temperature Range Modifier Schedule Name
  ASHRAEClearSky;                         ! Solar Model Indicator

OS:ComponentData,
  {e8c460db-4bf3-4bfe-99b1-7fe04b55f6ad}, ! Handle
  Component Data 1,                       ! Name
  {c4e2b207-218b-4471-8166-03afef75d3e7}, ! UUID
  {5f603c14-121f-4268-800c-c793b2e44e50}, ! Version UUID
  1366304739,                             ! Creation Timestamp
  1366304739,                             ! Version Timestamp
  {b204b291-6881-4f9a-ae7d-9f567a6bfb03}; ! Name of Object 1

