
OS:Version,
  {d13c8c65-90ea-4246-b771-84511cfee5d5}, ! Handle
  0.9.3;                                  ! Version Identifier

OS:SizingPeriod:DesignDay,
  {eb93f5bb-93cf-4778-b71d-89afdaa6f3af}, ! Handle
  Corpus Christi Nas Ann Htg 99.6% Condns DB, ! Name
  2,                                      ! Maximum Dry-Bulb Temperature {C}
  0,                                      ! Daily Dry-Bulb Temperature Range {deltaC}
  2,                                      ! Humidity Indicating Conditions at Maximum Dry-Bulb {BasedOnField A3}
  101253,                                 ! Barometric Pressure {Pa}
  6.4,                                    ! Wind Speed {m/s}
  350,                                    ! Wind Direction {deg}
  0,                                      ! Sky Clearness
  0,                                      ! Rain Indicator
  0,                                      ! Snow Indicator
  21,                                     ! Day of Month
  1,                                      ! Month
  WinterDesignDay,                        ! Day Type
  0,                                      ! Daylight Saving Time Indicator
  Wetbulb,                                ! Humidity Indicating Type
  ,                                       ! Humidity Indicating Day Schedule Name
  DefaultMultipliers,                     ! Dry-Bulb Temperature Range Modifier Type
  ,                                       ! Dry-Bulb Temperature Range Modifier Schedule Name
  ASHRAEClearSky;                         ! Solar Model Indicator

OS:ComponentData,
  {a1ee4c2a-37a0-493b-b688-e769cce137cc}, ! Handle
  Component Data 1,                       ! Name
  {c072b308-0457-4207-86e2-64bedc44c77c}, ! UUID
  {6bdec1db-298c-4656-9ba3-e62d6381c06d}, ! Version UUID
  1366310633,                             ! Creation Timestamp
  1366310633,                             ! Version Timestamp
  {eb93f5bb-93cf-4778-b71d-89afdaa6f3af}; ! Name of Object 1

