
OS:Version,
  {1a8bd58d-f1c4-46de-bcd0-ffeb6ed22b56}, ! Handle
  0.9.3;                                  ! Version Identifier

OS:SizingPeriod:DesignDay,
  {98276269-8252-4a9e-8b5d-ca044626e274}, ! Handle
  Aspen Pitkin Co Sar Ann Clg 1% Condns DP=>MDB, ! Name
  15.1,                                   ! Maximum Dry-Bulb Temperature {C}
  17.4,                                   ! Daily Dry-Bulb Temperature Range {deltaC}
  11.4,                                   ! Humidity Indicating Conditions at Maximum Dry-Bulb {BasedOnField A3}
  75209,                                  ! Barometric Pressure {Pa}
  4,                                      ! Wind Speed {m/s}
  350,                                    ! Wind Direction {deg}
  0,                                      ! Sky Clearness
  0,                                      ! Rain Indicator
  0,                                      ! Snow Indicator
  21,                                     ! Day of Month
  7,                                      ! Month
  SummerDesignDay,                        ! Day Type
  0,                                      ! Daylight Saving Time Indicator
  Dewpoint,                               ! Humidity Indicating Type
  ,                                       ! Humidity Indicating Day Schedule Name
  DefaultMultipliers,                     ! Dry-Bulb Temperature Range Modifier Type
  ,                                       ! Dry-Bulb Temperature Range Modifier Schedule Name
  ASHRAETau,                              ! Solar Model Indicator
  ,                                       ! Beam Solar Day Schedule Name
  ,                                       ! Diffuse Solar Day Schedule Name
  0.374,                                  ! ASHRAE Taub {dimensionless}
  2.235;                                  ! ASHRAE Taud {dimensionless}

OS:ComponentData,
  {38664fe8-510c-4427-9cc8-99a7a12c6a99}, ! Handle
  Component Data 1,                       ! Name
  {4f021166-aa3b-44d1-bfd5-ea0ab162c40d}, ! UUID
  {a3e61372-a6f2-4992-aa90-d819ba81e806}, ! Version UUID
  1366306651,                             ! Creation Timestamp
  1366306651,                             ! Version Timestamp
  {98276269-8252-4a9e-8b5d-ca044626e274}; ! Name of Object 1

