
OS:Version,
  {ceabbda5-ad3d-465f-90f0-edf2e7b1dc41}, ! Handle
  0.9.3;                                  ! Version Identifier

OS:SizingPeriod:DesignDay,
  {b517c1cd-db4b-4e47-b8d8-68329121b796}, ! Handle
  KAHULUI Ann Clg 2% Condns WB=>MDB,      ! Name
  28.9,                                   ! Maximum Dry-Bulb Temperature {C}
  8.3,                                    ! Daily Dry-Bulb Temperature Range {deltaC}
  24.2,                                   ! Humidity Indicating Conditions at Maximum Dry-Bulb {BasedOnField A3}
  101145,                                 ! Barometric Pressure {Pa}
  7.9,                                    ! Wind Speed {m/s}
  60,                                     ! Wind Direction {deg}
  0,                                      ! Sky Clearness
  0,                                      ! Rain Indicator
  0,                                      ! Snow Indicator
  21,                                     ! Day of Month
  8,                                      ! Month
  SummerDesignDay,                        ! Day Type
  0,                                      ! Daylight Saving Time Indicator
  Wetbulb,                                ! Humidity Indicating Type
  ,                                       ! Humidity Indicating Day Schedule Name
  DefaultMultipliers,                     ! Dry-Bulb Temperature Range Modifier Type
  ,                                       ! Dry-Bulb Temperature Range Modifier Schedule Name
  ASHRAETau,                              ! Solar Model Indicator
  ,                                       ! Beam Solar Day Schedule Name
  ,                                       ! Diffuse Solar Day Schedule Name
  0.383,                                  ! ASHRAE Taub {dimensionless}
  2.519;                                  ! ASHRAE Taud {dimensionless}

OS:ComponentData,
  {440160dd-1430-4664-864b-db4f39f9f78a}, ! Handle
  Component Data 1,                       ! Name
  {55665c3f-c1e0-4145-8bdd-ead7f063cdee}, ! UUID
  {6179a75c-2ab8-47b9-b12a-0e2ae8f3f007}, ! Version UUID
  1366307097,                             ! Creation Timestamp
  1366307097,                             ! Version Timestamp
  {b517c1cd-db4b-4e47-b8d8-68329121b796}; ! Name of Object 1

