
OS:Version,
  {af53d614-a2f8-4df5-80a0-917250ac697b}, ! Handle
  0.9.3;                                  ! Version Identifier

OS:SizingPeriod:DesignDay,
  {5ba080ec-d713-439f-911d-c81a5fee1368}, ! Handle
  College Station Easterwood Fl Ann Htg Wind 99.6% Condns WS=>MCDB, ! Name
  11.6,                                   ! Maximum Dry-Bulb Temperature {C}
  0,                                      ! Daily Dry-Bulb Temperature Range {deltaC}
  11.6,                                   ! Humidity Indicating Conditions at Maximum Dry-Bulb {BasedOnField A3}
  100177,                                 ! Barometric Pressure {Pa}
  10.3,                                   ! Wind Speed {m/s}
  350,                                    ! Wind Direction {deg}
  0,                                      ! Sky Clearness
  0,                                      ! Rain Indicator
  0,                                      ! Snow Indicator
  21,                                     ! Day of Month
  1,                                      ! Month
  WinterDesignDay,                        ! Day Type
  0,                                      ! Daylight Saving Time Indicator
  Wetbulb,                                ! Humidity Indicating Type
  ,                                       ! Humidity Indicating Day Schedule Name
  DefaultMultipliers,                     ! Dry-Bulb Temperature Range Modifier Type
  ,                                       ! Dry-Bulb Temperature Range Modifier Schedule Name
  ASHRAEClearSky;                         ! Solar Model Indicator

OS:ComponentData,
  {307cff46-5923-4957-97d7-f53e5238853c}, ! Handle
  Component Data 1,                       ! Name
  {07bdea0a-5dff-4f52-aecd-4e1c91faba7c}, ! UUID
  {4701c0b5-a26e-4d33-95df-690f8c6d9b38}, ! Version UUID
  1366310617,                             ! Creation Timestamp
  1366310617,                             ! Version Timestamp
  {5ba080ec-d713-439f-911d-c81a5fee1368}; ! Name of Object 1

