
OS:Version,
  {d61718dc-6294-4457-a017-4716037920cf}, ! Handle
  0.9.3;                                  ! Version Identifier

OS:SizingPeriod:DesignDay,
  {ce103977-91eb-4d63-a55b-72b499f1ae48}, ! Handle
  Eveleth Muni  Awos Ann Clg 1% Condns DP=>MDB, ! Name
  24.5,                                   ! Maximum Dry-Bulb Temperature {C}
  13.1,                                   ! Daily Dry-Bulb Temperature Range {deltaC}
  20,                                     ! Humidity Indicating Conditions at Maximum Dry-Bulb {BasedOnField A3}
  96369,                                  ! Barometric Pressure {Pa}
  4.7,                                    ! Wind Speed {m/s}
  200,                                    ! Wind Direction {deg}
  0,                                      ! Sky Clearness
  0,                                      ! Rain Indicator
  0,                                      ! Snow Indicator
  21,                                     ! Day of Month
  7,                                      ! Month
  SummerDesignDay,                        ! Day Type
  0,                                      ! Daylight Saving Time Indicator
  Dewpoint,                               ! Humidity Indicating Type
  ,                                       ! Humidity Indicating Day Schedule Name
  DefaultMultipliers,                     ! Dry-Bulb Temperature Range Modifier Type
  ,                                       ! Dry-Bulb Temperature Range Modifier Schedule Name
  ASHRAETau,                              ! Solar Model Indicator
  ,                                       ! Beam Solar Day Schedule Name
  ,                                       ! Diffuse Solar Day Schedule Name
  0.403,                                  ! ASHRAE Taub {dimensionless}
  2.188;                                  ! ASHRAE Taud {dimensionless}

OS:ComponentData,
  {d5a7c2ca-0688-4c92-b1b4-3905d4318054}, ! Handle
  Component Data 1,                       ! Name
  {aed46dd3-c292-45a8-8c99-33cedd84b0fd}, ! UUID
  {8537a8a4-53a1-4187-b654-ec2165b9844c}, ! Version UUID
  1366308220,                             ! Creation Timestamp
  1366308220,                             ! Version Timestamp
  {ce103977-91eb-4d63-a55b-72b499f1ae48}; ! Name of Object 1

