
OS:Version,
  {33b1d886-ddd6-429d-9e09-998b1fb8e65b}, ! Handle
  0.9.3;                                  ! Version Identifier

OS:SizingPeriod:DesignDay,
  {29e4a5ea-bc3b-46d7-b366-84658010b68c}, ! Handle
  GULKANA Ann Clg 1% Condns DB=>MWB,      ! Name
  23.2,                                   ! Maximum Dry-Bulb Temperature {C}
  11.7,                                   ! Daily Dry-Bulb Temperature Range {deltaC}
  13.4,                                   ! Humidity Indicating Conditions at Maximum Dry-Bulb {BasedOnField A3}
  95679,                                  ! Barometric Pressure {Pa}
  2.6,                                    ! Wind Speed {m/s}
  160,                                    ! Wind Direction {deg}
  0,                                      ! Sky Clearness
  0,                                      ! Rain Indicator
  0,                                      ! Snow Indicator
  21,                                     ! Day of Month
  7,                                      ! Month
  SummerDesignDay,                        ! Day Type
  0,                                      ! Daylight Saving Time Indicator
  Wetbulb,                                ! Humidity Indicating Type
  ,                                       ! Humidity Indicating Day Schedule Name
  DefaultMultipliers,                     ! Dry-Bulb Temperature Range Modifier Type
  ,                                       ! Dry-Bulb Temperature Range Modifier Schedule Name
  ASHRAETau,                              ! Solar Model Indicator
  ,                                       ! Beam Solar Day Schedule Name
  ,                                       ! Diffuse Solar Day Schedule Name
  0.385,                                  ! ASHRAE Taub {dimensionless}
  2.111;                                  ! ASHRAE Taud {dimensionless}

OS:ComponentData,
  {52ac4e11-2dab-4f71-b585-ec5b4cabc16c}, ! Handle
  Component Data 1,                       ! Name
  {1928f7b0-d07f-434e-b847-8a1f27d72e43}, ! UUID
  {bc8980ff-58c7-4a57-862a-aa75c783deb4}, ! Version UUID
  1366305287,                             ! Creation Timestamp
  1366305287,                             ! Version Timestamp
  {29e4a5ea-bc3b-46d7-b366-84658010b68c}; ! Name of Object 1

