
OS:Version,
  {cdced834-4109-4039-bec8-32114a6a24cf}, ! Handle
  0.9.3;                                  ! Version Identifier

OS:SizingPeriod:DesignDay,
  {4f3b9867-5054-4741-aa24-4d2448dbe2d2}, ! Handle
  Antigo Lang Awos Ann Clg 2% Condns DB=>MWB, ! Name
  27,                                     ! Maximum Dry-Bulb Temperature {C}
  12.1,                                   ! Daily Dry-Bulb Temperature Range {deltaC}
  20.5,                                   ! Humidity Indicating Conditions at Maximum Dry-Bulb {BasedOnField A3}
  95874,                                  ! Barometric Pressure {Pa}
  4.8,                                    ! Wind Speed {m/s}
  210,                                    ! Wind Direction {deg}
  0,                                      ! Sky Clearness
  0,                                      ! Rain Indicator
  0,                                      ! Snow Indicator
  21,                                     ! Day of Month
  7,                                      ! Month
  SummerDesignDay,                        ! Day Type
  0,                                      ! Daylight Saving Time Indicator
  Wetbulb,                                ! Humidity Indicating Type
  ,                                       ! Humidity Indicating Day Schedule Name
  DefaultMultipliers,                     ! Dry-Bulb Temperature Range Modifier Type
  ,                                       ! Dry-Bulb Temperature Range Modifier Schedule Name
  ASHRAETau,                              ! Solar Model Indicator
  ,                                       ! Beam Solar Day Schedule Name
  ,                                       ! Diffuse Solar Day Schedule Name
  0.403,                                  ! ASHRAE Taub {dimensionless}
  2.215;                                  ! ASHRAE Taud {dimensionless}

OS:ComponentData,
  {fddd4ca5-1bde-47ed-ad17-a6444633afa4}, ! Handle
  Component Data 1,                       ! Name
  {c4f62447-f6be-4ed3-abbc-c24430b12eb9}, ! UUID
  {142d58e4-377f-4c2f-8886-6e923839a557}, ! Version UUID
  1366311479,                             ! Creation Timestamp
  1366311479,                             ! Version Timestamp
  {4f3b9867-5054-4741-aa24-4d2448dbe2d2}; ! Name of Object 1

