
OS:Version,
  {2fc2f287-d294-4953-aac4-8715697b5116}, ! Handle
  0.9.3;                                  ! Version Identifier

OS:SizingPeriod:DesignDay,
  {4ae4f2a7-a430-47b8-bafc-30dafea98b47}, ! Handle
  Garden City Municipal Ap Ann Htg Wind 99% Condns WS=>MCDB, ! Name
  0.8,                                    ! Maximum Dry-Bulb Temperature {C}
  0,                                      ! Daily Dry-Bulb Temperature Range {deltaC}
  0.8,                                    ! Humidity Indicating Conditions at Maximum Dry-Bulb {BasedOnField A3}
  91212,                                  ! Barometric Pressure {Pa}
  12.9,                                   ! Wind Speed {m/s}
  0,                                      ! Wind Direction {deg}
  0,                                      ! Sky Clearness
  0,                                      ! Rain Indicator
  0,                                      ! Snow Indicator
  21,                                     ! Day of Month
  1,                                      ! Month
  WinterDesignDay,                        ! Day Type
  0,                                      ! Daylight Saving Time Indicator
  Wetbulb,                                ! Humidity Indicating Type
  ,                                       ! Humidity Indicating Day Schedule Name
  DefaultMultipliers,                     ! Dry-Bulb Temperature Range Modifier Type
  ,                                       ! Dry-Bulb Temperature Range Modifier Schedule Name
  ASHRAEClearSky;                         ! Solar Model Indicator

OS:ComponentData,
  {da549d1f-ea63-48ee-ade4-5dc131ece496}, ! Handle
  Component Data 1,                       ! Name
  {df827cf4-beec-4e04-87bc-3bee747bd001}, ! UUID
  {2309a0c5-a07f-4769-bd12-7e7ad4719210}, ! Version UUID
  1366307525,                             ! Creation Timestamp
  1366307525,                             ! Version Timestamp
  {4ae4f2a7-a430-47b8-bafc-30dafea98b47}; ! Name of Object 1

