
OS:Version,
  {228aff34-5de7-495f-9fd9-f694754dff5e}, ! Handle
  0.9.3;                                  ! Version Identifier

OS:SizingPeriod:DesignDay,
  {322a0bc1-2418-44b5-b82f-6a5077f0072c}, ! Handle
  BINGHAMTON Ann Clg 1% Condns DB=>MWB,   ! Name
  28.1,                                   ! Maximum Dry-Bulb Temperature {C}
  9.7,                                    ! Daily Dry-Bulb Temperature Range {deltaC}
  20.2,                                   ! Humidity Indicating Conditions at Maximum Dry-Bulb {BasedOnField A3}
  95472,                                  ! Barometric Pressure {Pa}
  4.6,                                    ! Wind Speed {m/s}
  240,                                    ! Wind Direction {deg}
  0,                                      ! Sky Clearness
  0,                                      ! Rain Indicator
  0,                                      ! Snow Indicator
  21,                                     ! Day of Month
  7,                                      ! Month
  SummerDesignDay,                        ! Day Type
  0,                                      ! Daylight Saving Time Indicator
  Wetbulb,                                ! Humidity Indicating Type
  ,                                       ! Humidity Indicating Day Schedule Name
  DefaultMultipliers,                     ! Dry-Bulb Temperature Range Modifier Type
  ,                                       ! Dry-Bulb Temperature Range Modifier Schedule Name
  ASHRAETau,                              ! Solar Model Indicator
  ,                                       ! Beam Solar Day Schedule Name
  ,                                       ! Diffuse Solar Day Schedule Name
  0.452,                                  ! ASHRAE Taub {dimensionless}
  2.004;                                  ! ASHRAE Taud {dimensionless}

OS:ComponentData,
  {dab33cce-657e-4e8d-9f53-c46def893fb2}, ! Handle
  Component Data 1,                       ! Name
  {7e28d6b9-308a-414d-a5d6-686d4d65755b}, ! UUID
  {7c8e0ddd-43d3-4e93-83d7-74db9e92cfbf}, ! Version UUID
  1366309598,                             ! Creation Timestamp
  1366309598,                             ! Version Timestamp
  {322a0bc1-2418-44b5-b82f-6a5077f0072c}; ! Name of Object 1

