
OS:Version,
  {4878cc93-4409-4749-875d-ac57cc58e1d2}, ! Handle
  0.9.3;                                  ! Version Identifier

OS:SizingPeriod:DesignDay,
  {71345525-65bb-4bf4-98d9-128bb3723080}, ! Handle
  Cleveland Hopkins Intl Ap Ann Htg 99.6% Condns DB, ! Name
  -16.4,                                  ! Maximum Dry-Bulb Temperature {C}
  0,                                      ! Daily Dry-Bulb Temperature Range {deltaC}
  -16.4,                                  ! Humidity Indicating Conditions at Maximum Dry-Bulb {BasedOnField A3}
  98534,                                  ! Barometric Pressure {Pa}
  4.7,                                    ! Wind Speed {m/s}
  230,                                    ! Wind Direction {deg}
  0,                                      ! Sky Clearness
  0,                                      ! Rain Indicator
  0,                                      ! Snow Indicator
  21,                                     ! Day of Month
  1,                                      ! Month
  WinterDesignDay,                        ! Day Type
  0,                                      ! Daylight Saving Time Indicator
  Wetbulb,                                ! Humidity Indicating Type
  ,                                       ! Humidity Indicating Day Schedule Name
  DefaultMultipliers,                     ! Dry-Bulb Temperature Range Modifier Type
  ,                                       ! Dry-Bulb Temperature Range Modifier Schedule Name
  ASHRAEClearSky;                         ! Solar Model Indicator

OS:ComponentData,
  {8608c425-7c7d-40dc-bba1-6d677459fba5}, ! Handle
  Component Data 1,                       ! Name
  {c7284c8c-a76f-415c-a9d9-a78ee9d320ab}, ! UUID
  {d0816615-118d-46ac-93e2-e4d6da19e9da}, ! Version UUID
  1366309779,                             ! Creation Timestamp
  1366309779,                             ! Version Timestamp
  {71345525-65bb-4bf4-98d9-128bb3723080}; ! Name of Object 1

