
OS:Version,
  {fcb17295-3c73-4706-aa89-ed41a09a1716}, ! Handle
  0.9.3;                                  ! Version Identifier

OS:SizingPeriod:DesignDay,
  {7af29869-8dbc-4805-95df-9376b33b2429}, ! Handle
  Augusta Ann Clg 2% Condns Enth=>MDB,    ! Name
  31.2,                                   ! Maximum Dry-Bulb Temperature {C}
  11.7,                                   ! Daily Dry-Bulb Temperature Range {deltaC}
  77200,                                  ! Humidity Indicating Conditions at Maximum Dry-Bulb {BasedOnField A3}
  100786,                                 ! Barometric Pressure {Pa}
  3.8,                                    ! Wind Speed {m/s}
  240,                                    ! Wind Direction {deg}
  0,                                      ! Sky Clearness
  0,                                      ! Rain Indicator
  0,                                      ! Snow Indicator
  21,                                     ! Day of Month
  7,                                      ! Month
  SummerDesignDay,                        ! Day Type
  0,                                      ! Daylight Saving Time Indicator
  Enthalpy,                               ! Humidity Indicating Type
  ,                                       ! Humidity Indicating Day Schedule Name
  DefaultMultipliers,                     ! Dry-Bulb Temperature Range Modifier Type
  ,                                       ! Dry-Bulb Temperature Range Modifier Schedule Name
  ASHRAETau,                              ! Solar Model Indicator
  ,                                       ! Beam Solar Day Schedule Name
  ,                                       ! Diffuse Solar Day Schedule Name
  0.559,                                  ! ASHRAE Taub {dimensionless}
  1.788;                                  ! ASHRAE Taud {dimensionless}

OS:ComponentData,
  {9d897e4a-bfb4-474d-becc-0ccd87815b54}, ! Handle
  Component Data 1,                       ! Name
  {aed88c11-11c5-48fe-808f-235bb3e1a691}, ! UUID
  {8428b37c-51a0-42ff-aac4-3ab2796209fc}, ! Version UUID
  1366306986,                             ! Creation Timestamp
  1366306986,                             ! Version Timestamp
  {7af29869-8dbc-4805-95df-9376b33b2429}; ! Name of Object 1

