
OS:Version,
  {01508385-9c05-45d3-8cbb-a8cd2c8a2cda}, ! Handle
  0.9.3;                                  ! Version Identifier

OS:SizingPeriod:DesignDay,
  {617c7efa-dba7-4a34-9946-154b3786b529}, ! Handle
  Little Rock Adams Field Ann Clg 1% Condns DB=>MWB, ! Name
  35.2,                                   ! Maximum Dry-Bulb Temperature {C}
  10.6,                                   ! Daily Dry-Bulb Temperature Range {deltaC}
  25.1,                                   ! Humidity Indicating Conditions at Maximum Dry-Bulb {BasedOnField A3}
  100391,                                 ! Barometric Pressure {Pa}
  3.9,                                    ! Wind Speed {m/s}
  200,                                    ! Wind Direction {deg}
  0,                                      ! Sky Clearness
  0,                                      ! Rain Indicator
  0,                                      ! Snow Indicator
  21,                                     ! Day of Month
  7,                                      ! Month
  SummerDesignDay,                        ! Day Type
  0,                                      ! Daylight Saving Time Indicator
  Wetbulb,                                ! Humidity Indicating Type
  ,                                       ! Humidity Indicating Day Schedule Name
  DefaultMultipliers,                     ! Dry-Bulb Temperature Range Modifier Type
  ,                                       ! Dry-Bulb Temperature Range Modifier Schedule Name
  ASHRAETau,                              ! Solar Model Indicator
  ,                                       ! Beam Solar Day Schedule Name
  ,                                       ! Diffuse Solar Day Schedule Name
  0.517,                                  ! ASHRAE Taub {dimensionless}
  1.901;                                  ! ASHRAE Taud {dimensionless}

OS:ComponentData,
  {61a48d36-d4bd-4d3d-80cf-599e36a7449a}, ! Handle
  Component Data 1,                       ! Name
  {57240f70-f55c-4778-9d0e-31448186544e}, ! UUID
  {e2fa7130-89a4-4b5b-836b-50a31feed352}, ! Version UUID
  1366306229,                             ! Creation Timestamp
  1366306229,                             ! Version Timestamp
  {617c7efa-dba7-4a34-9946-154b3786b529}; ! Name of Object 1

