
OS:Version,
  {db0f4b11-2f52-4713-9b87-a17fb93d8f9a}, ! Handle
  0.9.3;                                  ! Version Identifier

OS:SizingPeriod:DesignDay,
  {d410c79d-72fd-454d-872c-1bd827ea48ef}, ! Handle
  Allentown Ann Clg 2% Condns Enth=>MDB,  ! Name
  27.8,                                   ! Maximum Dry-Bulb Temperature {C}
  10.7,                                   ! Daily Dry-Bulb Temperature Range {deltaC}
  69400,                                  ! Humidity Indicating Conditions at Maximum Dry-Bulb {BasedOnField A3}
  99927,                                  ! Barometric Pressure {Pa}
  4.6,                                    ! Wind Speed {m/s}
  240,                                    ! Wind Direction {deg}
  0,                                      ! Sky Clearness
  0,                                      ! Rain Indicator
  0,                                      ! Snow Indicator
  21,                                     ! Day of Month
  7,                                      ! Month
  SummerDesignDay,                        ! Day Type
  0,                                      ! Daylight Saving Time Indicator
  Enthalpy,                               ! Humidity Indicating Type
  ,                                       ! Humidity Indicating Day Schedule Name
  DefaultMultipliers,                     ! Dry-Bulb Temperature Range Modifier Type
  ,                                       ! Dry-Bulb Temperature Range Modifier Schedule Name
  ASHRAETau,                              ! Solar Model Indicator
  ,                                       ! Beam Solar Day Schedule Name
  ,                                       ! Diffuse Solar Day Schedule Name
  0.504,                                  ! ASHRAE Taub {dimensionless}
  1.885;                                  ! ASHRAE Taud {dimensionless}

OS:ComponentData,
  {9a9ff224-5da0-4fb7-986b-50d609a69880}, ! Handle
  Component Data 1,                       ! Name
  {4ba17b78-fb2c-4562-8d52-1a40bb05a676}, ! UUID
  {3ff501cd-86f8-431a-a2fd-09faf94f48d6}, ! Version UUID
  1366310128,                             ! Creation Timestamp
  1366310128,                             ! Version Timestamp
  {d410c79d-72fd-454d-872c-1bd827ea48ef}; ! Name of Object 1

