
OS:Version,
  {73e32353-3b45-4cb4-a3e4-f569a998bb19}, ! Handle
  0.9.3;                                  ! Version Identifier

OS:SizingPeriod:DesignDay,
  {3dfc8395-5dfd-4d0b-9d3f-58cc8e984b51}, ! Handle
  Felts Fld Ann Clg 1% Condns DB=>MWB,    ! Name
  32.8,                                   ! Maximum Dry-Bulb Temperature {C}
  15.9,                                   ! Daily Dry-Bulb Temperature Range {deltaC}
  17.9,                                   ! Humidity Indicating Conditions at Maximum Dry-Bulb {BasedOnField A3}
  94208,                                  ! Barometric Pressure {Pa}
  3.5,                                    ! Wind Speed {m/s}
  220,                                    ! Wind Direction {deg}
  0,                                      ! Sky Clearness
  0,                                      ! Rain Indicator
  0,                                      ! Snow Indicator
  21,                                     ! Day of Month
  7,                                      ! Month
  SummerDesignDay,                        ! Day Type
  0,                                      ! Daylight Saving Time Indicator
  Wetbulb,                                ! Humidity Indicating Type
  ,                                       ! Humidity Indicating Day Schedule Name
  DefaultMultipliers,                     ! Dry-Bulb Temperature Range Modifier Type
  ,                                       ! Dry-Bulb Temperature Range Modifier Schedule Name
  ASHRAETau,                              ! Solar Model Indicator
  ,                                       ! Beam Solar Day Schedule Name
  ,                                       ! Diffuse Solar Day Schedule Name
  0.356,                                  ! ASHRAE Taub {dimensionless}
  2.398;                                  ! ASHRAE Taud {dimensionless}

