
OS:Version,
  {aef70334-f1bf-43b4-968a-2f2c2151b31a}, ! Handle
  0.9.3;                                  ! Version Identifier

OS:SizingPeriod:DesignDay,
  {9bfdef04-7ed5-4e11-9729-a8ca04684fde}, ! Handle
  Burley Municipal Arpt Ann Clg .4% Condns DP=>MDB, ! Name
  23.2,                                   ! Maximum Dry-Bulb Temperature {C}
  16.9,                                   ! Daily Dry-Bulb Temperature Range {deltaC}
  15.9,                                   ! Humidity Indicating Conditions at Maximum Dry-Bulb {BasedOnField A3}
  87002,                                  ! Barometric Pressure {Pa}
  3,                                      ! Wind Speed {m/s}
  270,                                    ! Wind Direction {deg}
  0,                                      ! Sky Clearness
  0,                                      ! Rain Indicator
  0,                                      ! Snow Indicator
  21,                                     ! Day of Month
  7,                                      ! Month
  SummerDesignDay,                        ! Day Type
  0,                                      ! Daylight Saving Time Indicator
  Dewpoint,                               ! Humidity Indicating Type
  ,                                       ! Humidity Indicating Day Schedule Name
  DefaultMultipliers,                     ! Dry-Bulb Temperature Range Modifier Type
  ,                                       ! Dry-Bulb Temperature Range Modifier Schedule Name
  ASHRAETau,                              ! Solar Model Indicator
  ,                                       ! Beam Solar Day Schedule Name
  ,                                       ! Diffuse Solar Day Schedule Name
  0.429,                                  ! ASHRAE Taub {dimensionless}
  1.956;                                  ! ASHRAE Taud {dimensionless}

OS:ComponentData,
  {d5bb0630-9f6a-4107-8fec-345d75ce559c}, ! Handle
  Component Data 1,                       ! Name
  {895dfacf-ce55-45df-8203-e282a14258f6}, ! UUID
  {180928b6-5f5e-4420-801d-47844f883065}, ! Version UUID
  1366307274,                             ! Creation Timestamp
  1366307274,                             ! Version Timestamp
  {9bfdef04-7ed5-4e11-9729-a8ca04684fde}; ! Name of Object 1

