
OS:Version,
  {a5d4f0b1-8f4a-413f-91de-5b6e0cea1fe7}, ! Handle
  0.9.3;                                  ! Version Identifier

OS:SizingPeriod:DesignDay,
  {9586fccc-f85c-4c29-a434-5a0fa15983f3}, ! Handle
  Alamosa San Luis Valley Rgnl Ann Hum_n 99% Condns DP=>MCDB, ! Name
  -19.9,                                  ! Maximum Dry-Bulb Temperature {C}
  0,                                      ! Daily Dry-Bulb Temperature Range {deltaC}
  -25,                                    ! Humidity Indicating Conditions at Maximum Dry-Bulb {BasedOnField A3}
  76617,                                  ! Barometric Pressure {Pa}
  1.2,                                    ! Wind Speed {m/s}
  270,                                    ! Wind Direction {deg}
  0,                                      ! Sky Clearness
  0,                                      ! Rain Indicator
  0,                                      ! Snow Indicator
  21,                                     ! Day of Month
  1,                                      ! Month
  WinterDesignDay,                        ! Day Type
  0,                                      ! Daylight Saving Time Indicator
  Dewpoint,                               ! Humidity Indicating Type
  ,                                       ! Humidity Indicating Day Schedule Name
  DefaultMultipliers,                     ! Dry-Bulb Temperature Range Modifier Type
  ,                                       ! Dry-Bulb Temperature Range Modifier Schedule Name
  ASHRAEClearSky;                         ! Solar Model Indicator

OS:ComponentData,
  {65b604f1-b8d7-4b7a-94df-4fd642bffc5a}, ! Handle
  Component Data 1,                       ! Name
  {f58e0678-ae59-4ee8-9787-31df94720145}, ! UUID
  {11e105df-5474-49e3-af34-31aa7dd6d1cc}, ! Version UUID
  1366306647,                             ! Creation Timestamp
  1366306647,                             ! Version Timestamp
  {9586fccc-f85c-4c29-a434-5a0fa15983f3}; ! Name of Object 1

