
OS:Version,
  {a1b53920-48d2-4e0e-a651-0b0be823f51c}, ! Handle
  0.9.3;                                  ! Version Identifier

OS:SizingPeriod:DesignDay,
  {a8845da0-e1a3-4c0b-a9ec-9b1d8f3f3598}, ! Handle
  Casper Ann Clg 2% Condns Enth=>MDB,     ! Name
  26.8,                                   ! Maximum Dry-Bulb Temperature {C}
  18.1,                                   ! Daily Dry-Bulb Temperature Range {deltaC}
  50300,                                  ! Humidity Indicating Conditions at Maximum Dry-Bulb {BasedOnField A3}
  83400,                                  ! Barometric Pressure {Pa}
  5.5,                                    ! Wind Speed {m/s}
  230,                                    ! Wind Direction {deg}
  0,                                      ! Sky Clearness
  0,                                      ! Rain Indicator
  0,                                      ! Snow Indicator
  21,                                     ! Day of Month
  7,                                      ! Month
  SummerDesignDay,                        ! Day Type
  0,                                      ! Daylight Saving Time Indicator
  Enthalpy,                               ! Humidity Indicating Type
  ,                                       ! Humidity Indicating Day Schedule Name
  DefaultMultipliers,                     ! Dry-Bulb Temperature Range Modifier Type
  ,                                       ! Dry-Bulb Temperature Range Modifier Schedule Name
  ASHRAETau,                              ! Solar Model Indicator
  ,                                       ! Beam Solar Day Schedule Name
  ,                                       ! Diffuse Solar Day Schedule Name
  0.411,                                  ! ASHRAE Taub {dimensionless}
  2.017;                                  ! ASHRAE Taud {dimensionless}

OS:ComponentData,
  {1f50e871-767d-4a62-b31a-ccad7fb248f3}, ! Handle
  Component Data 1,                       ! Name
  {77ff4d94-2fad-4a08-8ac2-ff798dababc1}, ! UUID
  {68d703a1-6cfd-4d76-b6a0-cf1648c24703}, ! Version UUID
  1366311685,                             ! Creation Timestamp
  1366311685,                             ! Version Timestamp
  {a8845da0-e1a3-4c0b-a9ec-9b1d8f3f3598}; ! Name of Object 1

