
OS:Version,
  {e07a8fb5-e7a4-4c54-aacb-2f9790ccb1be}, ! Handle
  0.9.3;                                  ! Version Identifier

OS:SizingPeriod:DesignDay,
  {395e413d-3c65-443c-8093-2d310ea582ae}, ! Handle
  Alamosa San Luis Valley Rgnl Ann Htg 99% Condns DB, ! Name
  -23.3,                                  ! Maximum Dry-Bulb Temperature {C}
  0,                                      ! Daily Dry-Bulb Temperature Range {deltaC}
  -23.3,                                  ! Humidity Indicating Conditions at Maximum Dry-Bulb {BasedOnField A3}
  76617,                                  ! Barometric Pressure {Pa}
  1.2,                                    ! Wind Speed {m/s}
  270,                                    ! Wind Direction {deg}
  0,                                      ! Sky Clearness
  0,                                      ! Rain Indicator
  0,                                      ! Snow Indicator
  21,                                     ! Day of Month
  1,                                      ! Month
  WinterDesignDay,                        ! Day Type
  0,                                      ! Daylight Saving Time Indicator
  Wetbulb,                                ! Humidity Indicating Type
  ,                                       ! Humidity Indicating Day Schedule Name
  DefaultMultipliers,                     ! Dry-Bulb Temperature Range Modifier Type
  ,                                       ! Dry-Bulb Temperature Range Modifier Schedule Name
  ASHRAEClearSky;                         ! Solar Model Indicator

OS:ComponentData,
  {981c8f64-939b-499c-8f8b-b7c69636dfd9}, ! Handle
  Component Data 1,                       ! Name
  {70ad45e1-82fa-4fd6-a67d-d68b143dff72}, ! UUID
  {cc6d0028-02ec-4a1d-9dc3-4852706e1bb7}, ! Version UUID
  1366306646,                             ! Creation Timestamp
  1366306646,                             ! Version Timestamp
  {395e413d-3c65-443c-8093-2d310ea582ae}; ! Name of Object 1

