
OS:Version,
  {ef03c775-272b-4821-9b06-ade159aad49b}, ! Handle
  0.9.3;                                  ! Version Identifier

OS:SizingPeriod:DesignDay,
  {3d02b87b-c8b3-4b4b-89ff-ae8c297efb99}, ! Handle
  Havre City County Ap Ann Hum_n 99% Condns DP=>MCDB, ! Name
  -27.2,                                  ! Maximum Dry-Bulb Temperature {C}
  0,                                      ! Daily Dry-Bulb Temperature Range {deltaC}
  -31.9,                                  ! Humidity Indicating Conditions at Maximum Dry-Bulb {BasedOnField A3}
  92210,                                  ! Barometric Pressure {Pa}
  2.4,                                    ! Wind Speed {m/s}
  240,                                    ! Wind Direction {deg}
  0,                                      ! Sky Clearness
  0,                                      ! Rain Indicator
  0,                                      ! Snow Indicator
  21,                                     ! Day of Month
  1,                                      ! Month
  WinterDesignDay,                        ! Day Type
  0,                                      ! Daylight Saving Time Indicator
  Dewpoint,                               ! Humidity Indicating Type
  ,                                       ! Humidity Indicating Day Schedule Name
  DefaultMultipliers,                     ! Dry-Bulb Temperature Range Modifier Type
  ,                                       ! Dry-Bulb Temperature Range Modifier Schedule Name
  ASHRAEClearSky;                         ! Solar Model Indicator

OS:ComponentData,
  {dd0c9b60-bf14-497b-9fa1-ddb2290c8c2a}, ! Handle
  Component Data 1,                       ! Name
  {adb3df58-7a55-40fb-82de-97c6a98ef642}, ! UUID
  {820524ca-e4d0-46fe-9441-c194965b0092}, ! Version UUID
  1366308784,                             ! Creation Timestamp
  1366308784,                             ! Version Timestamp
  {3d02b87b-c8b3-4b4b-89ff-ae8c297efb99}; ! Name of Object 1

