
OS:Version,
  {f1b2a9be-8c52-4ff0-9694-cf79d9006aff}, ! Handle
  0.9.3;                                  ! Version Identifier

OS:SizingPeriod:DesignDay,
  {e8e59379-eb70-4811-8931-4554db4dd86b}, ! Handle
  Jacksonville Nas Ann Clg 1% Condns WB=>MDB, ! Name
  31.1,                                   ! Maximum Dry-Bulb Temperature {C}
  9.4,                                    ! Daily Dry-Bulb Temperature Range {deltaC}
  26.4,                                   ! Humidity Indicating Conditions at Maximum Dry-Bulb {BasedOnField A3}
  101217,                                 ! Barometric Pressure {Pa}
  3.2,                                    ! Wind Speed {m/s}
  260,                                    ! Wind Direction {deg}
  0,                                      ! Sky Clearness
  0,                                      ! Rain Indicator
  0,                                      ! Snow Indicator
  21,                                     ! Day of Month
  7,                                      ! Month
  SummerDesignDay,                        ! Day Type
  0,                                      ! Daylight Saving Time Indicator
  Wetbulb,                                ! Humidity Indicating Type
  ,                                       ! Humidity Indicating Day Schedule Name
  DefaultMultipliers,                     ! Dry-Bulb Temperature Range Modifier Type
  ,                                       ! Dry-Bulb Temperature Range Modifier Schedule Name
  ASHRAETau,                              ! Solar Model Indicator
  ,                                       ! Beam Solar Day Schedule Name
  ,                                       ! Diffuse Solar Day Schedule Name
  0.538,                                  ! ASHRAE Taub {dimensionless}
  1.868;                                  ! ASHRAE Taud {dimensionless}

OS:ComponentData,
  {a54d3457-dc90-4249-810b-d0acc7160c50}, ! Handle
  Component Data 1,                       ! Name
  {00f46df8-974d-44bb-82c2-b7c0d0eadfdf}, ! UUID
  {c10bcf79-f59b-40e0-9e37-a8afe33be322}, ! Version UUID
  1366306826,                             ! Creation Timestamp
  1366306826,                             ! Version Timestamp
  {e8e59379-eb70-4811-8931-4554db4dd86b}; ! Name of Object 1

