
OS:Version,
  {32c5a374-8580-405c-88fe-49a6f8017237}, ! Handle
  0.9.3;                                  ! Version Identifier

OS:SizingPeriod:DesignDay,
  {b001b8d4-2bea-4e7e-8314-c7776fe69198}, ! Handle
  Anaktuvuk Pass Ann Clg 2% Condns DP=>MDB, ! Name
  13.6,                                   ! Maximum Dry-Bulb Temperature {C}
  9.1,                                    ! Daily Dry-Bulb Temperature Range {deltaC}
  7.9,                                    ! Humidity Indicating Conditions at Maximum Dry-Bulb {BasedOnField A3}
  93677,                                  ! Barometric Pressure {Pa}
  3.6,                                    ! Wind Speed {m/s}
  40,                                     ! Wind Direction {deg}
  0,                                      ! Sky Clearness
  0,                                      ! Rain Indicator
  0,                                      ! Snow Indicator
  21,                                     ! Day of Month
  7,                                      ! Month
  SummerDesignDay,                        ! Day Type
  0,                                      ! Daylight Saving Time Indicator
  Dewpoint,                               ! Humidity Indicating Type
  ,                                       ! Humidity Indicating Day Schedule Name
  DefaultMultipliers,                     ! Dry-Bulb Temperature Range Modifier Type
  ,                                       ! Dry-Bulb Temperature Range Modifier Schedule Name
  ASHRAETau,                              ! Solar Model Indicator
  ,                                       ! Beam Solar Day Schedule Name
  ,                                       ! Diffuse Solar Day Schedule Name
  0.361,                                  ! ASHRAE Taub {dimensionless}
  2.199;                                  ! ASHRAE Taud {dimensionless}

OS:ComponentData,
  {ab0cc0b3-6f09-4d4d-b707-88ce70a963b9}, ! Handle
  Component Data 1,                       ! Name
  {1118916f-c32e-41d0-867c-7e3738943e26}, ! UUID
  {cf39906f-e2f0-4cd3-a529-2b297a443f55}, ! Version UUID
  1366304689,                             ! Creation Timestamp
  1366304689,                             ! Version Timestamp
  {b001b8d4-2bea-4e7e-8314-c7776fe69198}; ! Name of Object 1

