
OS:Version,
  {b29b5ac1-7b2b-4d37-9b55-d82de8f118ae}, ! Handle
  0.9.3;                                  ! Version Identifier

OS:SizingPeriod:DesignDay,
  {96abde5e-99c4-4db8-8c00-b77fc38cf6b5}, ! Handle
  Dillingham  Amos Ann Htg Wind 99.6% Condns WS=>MCDB, ! Name
  -7.8,                                   ! Maximum Dry-Bulb Temperature {C}
  0,                                      ! Daily Dry-Bulb Temperature Range {deltaC}
  -7.8,                                   ! Humidity Indicating Conditions at Maximum Dry-Bulb {BasedOnField A3}
  100977,                                 ! Barometric Pressure {Pa}
  13.1,                                   ! Wind Speed {m/s}
  10,                                     ! Wind Direction {deg}
  0,                                      ! Sky Clearness
  0,                                      ! Rain Indicator
  0,                                      ! Snow Indicator
  21,                                     ! Day of Month
  1,                                      ! Month
  WinterDesignDay,                        ! Day Type
  0,                                      ! Daylight Saving Time Indicator
  Wetbulb,                                ! Humidity Indicating Type
  ,                                       ! Humidity Indicating Day Schedule Name
  DefaultMultipliers,                     ! Dry-Bulb Temperature Range Modifier Type
  ,                                       ! Dry-Bulb Temperature Range Modifier Schedule Name
  ASHRAEClearSky;                         ! Solar Model Indicator

OS:ComponentData,
  {ba695549-5eac-4e25-8193-aeeba6ac2dc6}, ! Handle
  Component Data 1,                       ! Name
  {7938ac7d-623d-45e8-a30b-3162a9dfe5ac}, ! UUID
  {9e0a2ecb-65c5-4f95-bf4c-d8cef18a4fc2}, ! Version UUID
  1366305225,                             ! Creation Timestamp
  1366305225,                             ! Version Timestamp
  {96abde5e-99c4-4db8-8c00-b77fc38cf6b5}; ! Name of Object 1

