
OS:Version,
  {bafe93bb-540c-48af-9069-6db38e9d9ed5}, ! Handle
  0.9.3;                                  ! Version Identifier

OS:SizingPeriod:DesignDay,
  {f2cc1c39-145c-493a-8828-940dd639518d}, ! Handle
  Bellingham Intl Ap Ann Clg 1% Condns DB=>MWB, ! Name
  24.5,                                   ! Maximum Dry-Bulb Temperature {C}
  9.2,                                    ! Daily Dry-Bulb Temperature Range {deltaC}
  17.6,                                   ! Humidity Indicating Conditions at Maximum Dry-Bulb {BasedOnField A3}
  100786,                                 ! Barometric Pressure {Pa}
  3.6,                                    ! Wind Speed {m/s}
  290,                                    ! Wind Direction {deg}
  0,                                      ! Sky Clearness
  0,                                      ! Rain Indicator
  0,                                      ! Snow Indicator
  21,                                     ! Day of Month
  8,                                      ! Month
  SummerDesignDay,                        ! Day Type
  0,                                      ! Daylight Saving Time Indicator
  Wetbulb,                                ! Humidity Indicating Type
  ,                                       ! Humidity Indicating Day Schedule Name
  DefaultMultipliers,                     ! Dry-Bulb Temperature Range Modifier Type
  ,                                       ! Dry-Bulb Temperature Range Modifier Schedule Name
  ASHRAETau,                              ! Solar Model Indicator
  ,                                       ! Beam Solar Day Schedule Name
  ,                                       ! Diffuse Solar Day Schedule Name
  0.361,                                  ! ASHRAE Taub {dimensionless}
  2.493;                                  ! ASHRAE Taud {dimensionless}

OS:ComponentData,
  {0d0545a9-18e2-4027-9c9b-8541ba81162a}, ! Handle
  Component Data 1,                       ! Name
  {967f1898-0551-4eb9-a6dc-35f461d6e64e}, ! UUID
  {7b9f7bae-570f-4585-b0a0-b8cfbf819c6b}, ! Version UUID
  1366311267,                             ! Creation Timestamp
  1366311267,                             ! Version Timestamp
  {f2cc1c39-145c-493a-8828-940dd639518d}; ! Name of Object 1

