
OS:Version,
  {7e0db1c5-6af8-4b2e-a71f-47c77833644a}, ! Handle
  0.9.3;                                  ! Version Identifier

OS:SizingPeriod:DesignDay,
  {6bf93320-5bfc-4c7b-ae69-bf4b7ac0f58f}, ! Handle
  ALBANY Ann Clg 1% Condns DB=>MWB,       ! Name
  30.1,                                   ! Maximum Dry-Bulb Temperature {C}
  11.1,                                   ! Daily Dry-Bulb Temperature Range {deltaC}
  21.9,                                   ! Humidity Indicating Conditions at Maximum Dry-Bulb {BasedOnField A3}
  100260,                                 ! Barometric Pressure {Pa}
  4.4,                                    ! Wind Speed {m/s}
  180,                                    ! Wind Direction {deg}
  0,                                      ! Sky Clearness
  0,                                      ! Rain Indicator
  0,                                      ! Snow Indicator
  21,                                     ! Day of Month
  7,                                      ! Month
  SummerDesignDay,                        ! Day Type
  0,                                      ! Daylight Saving Time Indicator
  Wetbulb,                                ! Humidity Indicating Type
  ,                                       ! Humidity Indicating Day Schedule Name
  DefaultMultipliers,                     ! Dry-Bulb Temperature Range Modifier Type
  ,                                       ! Dry-Bulb Temperature Range Modifier Schedule Name
  ASHRAETau,                              ! Solar Model Indicator
  ,                                       ! Beam Solar Day Schedule Name
  ,                                       ! Diffuse Solar Day Schedule Name
  0.49,                                   ! ASHRAE Taub {dimensionless}
  1.923;                                  ! ASHRAE Taud {dimensionless}

OS:ComponentData,
  {0954e0b2-01a6-464a-9a12-33f08143c8ff}, ! Handle
  Component Data 1,                       ! Name
  {2aa9ed4f-d7c0-45e5-bf37-4bcc27f8f79a}, ! UUID
  {25c936a1-3543-4fa3-98ad-067f863b5544}, ! Version UUID
  1366309574,                             ! Creation Timestamp
  1366309574,                             ! Version Timestamp
  {6bf93320-5bfc-4c7b-ae69-bf4b7ac0f58f}; ! Name of Object 1

