
OS:Version,
  {6bc687ec-ee2a-4328-a4bf-a665609f2896}, ! Handle
  0.9.3;                                  ! Version Identifier

OS:SizingPeriod:DesignDay,
  {37592687-4ad2-4828-810b-f76385999133}, ! Handle
  LEXINGTON Ann Clg 1% Condns Enth=>MDB,  ! Name
  29.9,                                   ! Maximum Dry-Bulb Temperature {C}
  10.2,                                   ! Daily Dry-Bulb Temperature Range {deltaC}
  75300,                                  ! Humidity Indicating Conditions at Maximum Dry-Bulb {BasedOnField A3}
  97761,                                  ! Barometric Pressure {Pa}
  3.7,                                    ! Wind Speed {m/s}
  250,                                    ! Wind Direction {deg}
  0,                                      ! Sky Clearness
  0,                                      ! Rain Indicator
  0,                                      ! Snow Indicator
  21,                                     ! Day of Month
  7,                                      ! Month
  SummerDesignDay,                        ! Day Type
  0,                                      ! Daylight Saving Time Indicator
  Enthalpy,                               ! Humidity Indicating Type
  ,                                       ! Humidity Indicating Day Schedule Name
  DefaultMultipliers,                     ! Dry-Bulb Temperature Range Modifier Type
  ,                                       ! Dry-Bulb Temperature Range Modifier Schedule Name
  ASHRAETau,                              ! Solar Model Indicator
  ,                                       ! Beam Solar Day Schedule Name
  ,                                       ! Diffuse Solar Day Schedule Name
  0.503,                                  ! ASHRAE Taub {dimensionless}
  1.885;                                  ! ASHRAE Taud {dimensionless}

OS:ComponentData,
  {38af7f84-cda9-4dcf-9725-abe1bb4c2128}, ! Handle
  Component Data 1,                       ! Name
  {2c17cd87-c065-41bb-9fd2-499896388304}, ! UUID
  {57c45665-0745-4095-a2fc-144609b9f6ac}, ! Version UUID
  1366307657,                             ! Creation Timestamp
  1366307657,                             ! Version Timestamp
  {37592687-4ad2-4828-810b-f76385999133}; ! Name of Object 1

