
OS:Version,
  {bb846491-6835-4eac-866e-8b42bfb5ee62}, ! Handle
  0.9.3;                                  ! Version Identifier

OS:SizingPeriod:DesignDay,
  {a52e58fc-48ed-46b4-b790-3c5c19c6eaee}, ! Handle
  Danville Faa Ap Ann Htg Wind 99% Condns WS=>MCDB, ! Name
  8.3,                                    ! Maximum Dry-Bulb Temperature {C}
  0,                                      ! Daily Dry-Bulb Temperature Range {deltaC}
  8.3,                                    ! Humidity Indicating Conditions at Maximum Dry-Bulb {BasedOnField A3}
  99228,                                  ! Barometric Pressure {Pa}
  8.5,                                    ! Wind Speed {m/s}
  30,                                     ! Wind Direction {deg}
  0,                                      ! Sky Clearness
  0,                                      ! Rain Indicator
  0,                                      ! Snow Indicator
  21,                                     ! Day of Month
  1,                                      ! Month
  WinterDesignDay,                        ! Day Type
  0,                                      ! Daylight Saving Time Indicator
  Wetbulb,                                ! Humidity Indicating Type
  ,                                       ! Humidity Indicating Day Schedule Name
  DefaultMultipliers,                     ! Dry-Bulb Temperature Range Modifier Type
  ,                                       ! Dry-Bulb Temperature Range Modifier Schedule Name
  ASHRAEClearSky;                         ! Solar Model Indicator

OS:ComponentData,
  {102404cd-48a9-4085-b5b5-f65fcf0e31da}, ! Handle
  Component Data 1,                       ! Name
  {6ec4c425-7965-44c4-b554-de3e729faf4b}, ! UUID
  {abe40c7e-ab07-4cbe-9f8f-b39213698e25}, ! Version UUID
  1366311029,                             ! Creation Timestamp
  1366311029,                             ! Version Timestamp
  {a52e58fc-48ed-46b4-b790-3c5c19c6eaee}; ! Name of Object 1

