
OS:Version,
  {a7b82c9f-2b50-468b-89fe-93701fc60e69}, ! Handle
  0.9.3;                                  ! Version Identifier

OS:SizingPeriod:DesignDay,
  {3ccbc348-ebb8-4b76-b541-4d29db673106}, ! Handle
  Dodge City Regional Ap Ann Clg 2% Condns WB=>MDB, ! Name
  31,                                     ! Maximum Dry-Bulb Temperature {C}
  13.9,                                   ! Daily Dry-Bulb Temperature Range {deltaC}
  22.3,                                   ! Humidity Indicating Conditions at Maximum Dry-Bulb {BasedOnField A3}
  92243,                                  ! Barometric Pressure {Pa}
  7.4,                                    ! Wind Speed {m/s}
  180,                                    ! Wind Direction {deg}
  0,                                      ! Sky Clearness
  0,                                      ! Rain Indicator
  0,                                      ! Snow Indicator
  21,                                     ! Day of Month
  7,                                      ! Month
  SummerDesignDay,                        ! Day Type
  0,                                      ! Daylight Saving Time Indicator
  Wetbulb,                                ! Humidity Indicating Type
  ,                                       ! Humidity Indicating Day Schedule Name
  DefaultMultipliers,                     ! Dry-Bulb Temperature Range Modifier Type
  ,                                       ! Dry-Bulb Temperature Range Modifier Schedule Name
  ASHRAETau,                              ! Solar Model Indicator
  ,                                       ! Beam Solar Day Schedule Name
  ,                                       ! Diffuse Solar Day Schedule Name
  0.419,                                  ! ASHRAE Taub {dimensionless}
  2.142;                                  ! ASHRAE Taud {dimensionless}

OS:ComponentData,
  {ea927497-b152-4827-b3bb-5110d372ce79}, ! Handle
  Component Data 1,                       ! Name
  {84f91e46-a808-48e0-b88c-91eea26ba51c}, ! UUID
  {57338340-b29a-47e2-ba05-4c8642692604}, ! Version UUID
  1366307517,                             ! Creation Timestamp
  1366307517,                             ! Version Timestamp
  {3ccbc348-ebb8-4b76-b541-4d29db673106}; ! Name of Object 1

