
OS:Version,
  {18b47ee3-70d4-4386-8714-3651d5f44533}, ! Handle
  0.9.3;                                  ! Version Identifier

OS:SizingPeriod:DesignDay,
  {d1ef7082-1d6e-4f3a-af4a-6ce47e751c6b}, ! Handle
  Lovelock Derby Field Ann Clg 2% Condns DP=>MDB, ! Name
  23.3,                                   ! Maximum Dry-Bulb Temperature {C}
  20.2,                                   ! Daily Dry-Bulb Temperature Range {deltaC}
  10.9,                                   ! Humidity Indicating Conditions at Maximum Dry-Bulb {BasedOnField A3}
  87833,                                  ! Barometric Pressure {Pa}
  4.1,                                    ! Wind Speed {m/s}
  180,                                    ! Wind Direction {deg}
  0,                                      ! Sky Clearness
  0,                                      ! Rain Indicator
  0,                                      ! Snow Indicator
  21,                                     ! Day of Month
  7,                                      ! Month
  SummerDesignDay,                        ! Day Type
  0,                                      ! Daylight Saving Time Indicator
  Dewpoint,                               ! Humidity Indicating Type
  ,                                       ! Humidity Indicating Day Schedule Name
  DefaultMultipliers,                     ! Dry-Bulb Temperature Range Modifier Type
  ,                                       ! Dry-Bulb Temperature Range Modifier Schedule Name
  ASHRAETau,                              ! Solar Model Indicator
  ,                                       ! Beam Solar Day Schedule Name
  ,                                       ! Diffuse Solar Day Schedule Name
  0.427,                                  ! ASHRAE Taub {dimensionless}
  1.948;                                  ! ASHRAE Taud {dimensionless}

OS:ComponentData,
  {73ed0d77-7e50-4ff2-9215-1dc1e8ebd37c}, ! Handle
  Component Data 1,                       ! Name
  {8e281665-dcea-490f-b03e-4e33ef4ddd2a}, ! UUID
  {248d45a2-6bbb-498d-81ab-7f9ef2710c6d}, ! Version UUID
  1366309518,                             ! Creation Timestamp
  1366309518,                             ! Version Timestamp
  {d1ef7082-1d6e-4f3a-af4a-6ce47e751c6b}; ! Name of Object 1

