
OS:Version,
  {528dc14f-7d51-4e57-afe3-b6e7a8688a04}, ! Handle
  0.9.3;                                  ! Version Identifier

OS:SizingPeriod:DesignDay,
  {deab6a82-e065-4d76-9b2a-8a41cc5ff2d8}, ! Handle
  Little Rock/AFB Ann Clg .4% Condns DB=>MWB, ! Name
  36.7,                                   ! Maximum Dry-Bulb Temperature {C}
  10.6,                                   ! Daily Dry-Bulb Temperature Range {deltaC}
  25.1,                                   ! Humidity Indicating Conditions at Maximum Dry-Bulb {BasedOnField A3}
  100189,                                 ! Barometric Pressure {Pa}
  3.9,                                    ! Wind Speed {m/s}
  200,                                    ! Wind Direction {deg}
  0,                                      ! Sky Clearness
  0,                                      ! Rain Indicator
  0,                                      ! Snow Indicator
  21,                                     ! Day of Month
  7,                                      ! Month
  SummerDesignDay,                        ! Day Type
  0,                                      ! Daylight Saving Time Indicator
  Wetbulb,                                ! Humidity Indicating Type
  ,                                       ! Humidity Indicating Day Schedule Name
  DefaultMultipliers,                     ! Dry-Bulb Temperature Range Modifier Type
  ,                                       ! Dry-Bulb Temperature Range Modifier Schedule Name
  ASHRAETau,                              ! Solar Model Indicator
  ,                                       ! Beam Solar Day Schedule Name
  ,                                       ! Diffuse Solar Day Schedule Name
  0.517,                                  ! ASHRAE Taub {dimensionless}
  1.901;                                  ! ASHRAE Taud {dimensionless}

OS:ComponentData,
  {d2080301-f87c-4dc6-9f93-efc04105df57}, ! Handle
  Component Data 1,                       ! Name
  {de718ad2-32b5-42a5-9011-2547cac0ec86}, ! UUID
  {910f13c3-2bcd-43c8-ba7d-2285194240c9}, ! Version UUID
  1366306224,                             ! Creation Timestamp
  1366306224,                             ! Version Timestamp
  {deab6a82-e065-4d76-9b2a-8a41cc5ff2d8}; ! Name of Object 1

