
OS:Version,
  {a112dbf0-b7b2-42b5-a5bb-37742de7a35e}, ! Handle
  0.9.3;                                  ! Version Identifier

OS:SizingPeriod:DesignDay,
  {00cd703e-8901-407e-b888-f83a46363986}, ! Handle
  Jackson Mckellar Sipes Regl A Ann Hum_n 99.6% Condns DP=>MCDB, ! Name
  -7.6,                                   ! Maximum Dry-Bulb Temperature {C}
  0,                                      ! Daily Dry-Bulb Temperature Range {deltaC}
  -15.6,                                  ! Humidity Indicating Conditions at Maximum Dry-Bulb {BasedOnField A3}
  99749,                                  ! Barometric Pressure {Pa}
  3.4,                                    ! Wind Speed {m/s}
  340,                                    ! Wind Direction {deg}
  0,                                      ! Sky Clearness
  0,                                      ! Rain Indicator
  0,                                      ! Snow Indicator
  21,                                     ! Day of Month
  1,                                      ! Month
  WinterDesignDay,                        ! Day Type
  0,                                      ! Daylight Saving Time Indicator
  Dewpoint,                               ! Humidity Indicating Type
  ,                                       ! Humidity Indicating Day Schedule Name
  DefaultMultipliers,                     ! Dry-Bulb Temperature Range Modifier Type
  ,                                       ! Dry-Bulb Temperature Range Modifier Schedule Name
  ASHRAEClearSky;                         ! Solar Model Indicator

OS:ComponentData,
  {12755fa8-10d6-4a75-922d-87a44ecde8a3}, ! Handle
  Component Data 1,                       ! Name
  {a287269f-df71-45a6-aaa2-c2baf5937088}, ! UUID
  {13eded4a-a3e2-4f41-b870-21fa60c97563}, ! Version UUID
  1366310504,                             ! Creation Timestamp
  1366310504,                             ! Version Timestamp
  {00cd703e-8901-407e-b888-f83a46363986}; ! Name of Object 1

