
OS:Version,
  {8738ea01-be20-43ab-bf34-821fd1efeebf}, ! Handle
  0.9.3;                                  ! Version Identifier

OS:SizingPeriod:DesignDay,
  {488feaab-2517-456d-9290-7ffdf651f57e}, ! Handle
  HELENA Ann Clg 1% Condns WB=>MDB,       ! Name
  28.3,                                   ! Maximum Dry-Bulb Temperature {C}
  16.1,                                   ! Daily Dry-Bulb Temperature Range {deltaC}
  17.2,                                   ! Humidity Indicating Conditions at Maximum Dry-Bulb {BasedOnField A3}
  87844,                                  ! Barometric Pressure {Pa}
  4.9,                                    ! Wind Speed {m/s}
  290,                                    ! Wind Direction {deg}
  0,                                      ! Sky Clearness
  0,                                      ! Rain Indicator
  0,                                      ! Snow Indicator
  21,                                     ! Day of Month
  7,                                      ! Month
  SummerDesignDay,                        ! Day Type
  0,                                      ! Daylight Saving Time Indicator
  Wetbulb,                                ! Humidity Indicating Type
  ,                                       ! Humidity Indicating Day Schedule Name
  DefaultMultipliers,                     ! Dry-Bulb Temperature Range Modifier Type
  ,                                       ! Dry-Bulb Temperature Range Modifier Schedule Name
  ASHRAETau,                              ! Solar Model Indicator
  ,                                       ! Beam Solar Day Schedule Name
  ,                                       ! Diffuse Solar Day Schedule Name
  0.38,                                   ! ASHRAE Taub {dimensionless}
  2.232;                                  ! ASHRAE Taud {dimensionless}

OS:ComponentData,
  {6d24ffd6-06b1-482c-b83f-c536b81e8e4b}, ! Handle
  Component Data 1,                       ! Name
  {70e1f745-5b5f-456d-a394-14bc3854a3a4}, ! UUID
  {b985fb4e-491c-431a-845a-d5c6edecf28d}, ! Version UUID
  1366308789,                             ! Creation Timestamp
  1366308789,                             ! Version Timestamp
  {488feaab-2517-456d-9290-7ffdf651f57e}; ! Name of Object 1

