
OS:Version,
  {ef4a40ba-13e6-42be-99a7-97fec3860ed7}, ! Handle
  0.9.3;                                  ! Version Identifier

OS:SizingPeriod:DesignDay,
  {cf82cc8d-a4f8-4a5f-b81f-ff8ec6ef8309}, ! Handle
  Hooper Bay Ann Htg Wind 99.6% Condns WS=>MCDB, ! Name
  -11.9,                                  ! Maximum Dry-Bulb Temperature {C}
  0,                                      ! Daily Dry-Bulb Temperature Range {deltaC}
  -11.9,                                  ! Humidity Indicating Conditions at Maximum Dry-Bulb {BasedOnField A3}
  101253,                                 ! Barometric Pressure {Pa}
  18.7,                                   ! Wind Speed {m/s}
  100,                                    ! Wind Direction {deg}
  0,                                      ! Sky Clearness
  0,                                      ! Rain Indicator
  0,                                      ! Snow Indicator
  21,                                     ! Day of Month
  1,                                      ! Month
  WinterDesignDay,                        ! Day Type
  0,                                      ! Daylight Saving Time Indicator
  Wetbulb,                                ! Humidity Indicating Type
  ,                                       ! Humidity Indicating Day Schedule Name
  DefaultMultipliers,                     ! Dry-Bulb Temperature Range Modifier Type
  ,                                       ! Dry-Bulb Temperature Range Modifier Schedule Name
  ASHRAEClearSky;                         ! Solar Model Indicator

OS:ComponentData,
  {19737b74-bc0c-4d5a-81b1-7bc15ab8f70f}, ! Handle
  Component Data 1,                       ! Name
  {f9746a80-4e3f-4074-bccb-072be18810d1}, ! UUID
  {c06abfde-1f57-40b8-a269-1effd3bb3f07}, ! Version UUID
  1366305317,                             ! Creation Timestamp
  1366305317,                             ! Version Timestamp
  {cf82cc8d-a4f8-4a5f-b81f-ff8ec6ef8309}; ! Name of Object 1

