
OS:Version,
  {cf3dc7a6-2431-42f7-905f-edcf094cf089}, ! Handle
  0.9.3;                                  ! Version Identifier

OS:SizingPeriod:DesignDay,
  {947e724e-cf21-4954-b1c8-1c93547a0744}, ! Handle
  Detroit Metropolitan Arpt Ann Hum_n 99% Condns DP=>MCDB, ! Name
  -13.1,                                  ! Maximum Dry-Bulb Temperature {C}
  0,                                      ! Daily Dry-Bulb Temperature Range {deltaC}
  -18.8,                                  ! Humidity Indicating Conditions at Maximum Dry-Bulb {BasedOnField A3}
  99016,                                  ! Barometric Pressure {Pa}
  4.9,                                    ! Wind Speed {m/s}
  240,                                    ! Wind Direction {deg}
  0,                                      ! Sky Clearness
  0,                                      ! Rain Indicator
  0,                                      ! Snow Indicator
  21,                                     ! Day of Month
  1,                                      ! Month
  WinterDesignDay,                        ! Day Type
  0,                                      ! Daylight Saving Time Indicator
  Dewpoint,                               ! Humidity Indicating Type
  ,                                       ! Humidity Indicating Day Schedule Name
  DefaultMultipliers,                     ! Dry-Bulb Temperature Range Modifier Type
  ,                                       ! Dry-Bulb Temperature Range Modifier Schedule Name
  ASHRAEClearSky;                         ! Solar Model Indicator

OS:ComponentData,
  {969fbb2e-a20c-4ca0-8ca3-5de773e5ce0d}, ! Handle
  Component Data 1,                       ! Name
  {c7a6452d-fb11-4797-a5a0-758692201c2c}, ! UUID
  {d3c76182-4aef-4181-a649-ccab566dd35c}, ! Version UUID
  1366307987,                             ! Creation Timestamp
  1366307987,                             ! Version Timestamp
  {947e724e-cf21-4954-b1c8-1c93547a0744}; ! Name of Object 1

