
OS:Version,
  {bf02da7d-19b2-4dba-9950-7ba7b481a883}, ! Handle
  0.9.3;                                  ! Version Identifier

OS:SizingPeriod:DesignDay,
  {86d4cde5-ec5e-429e-a35d-c0b3f19880ef}, ! Handle
  ALLENTOWN Ann Clg .4% Condns DP=>MDB,   ! Name
  27.3,                                   ! Maximum Dry-Bulb Temperature {C}
  10.7,                                   ! Daily Dry-Bulb Temperature Range {deltaC}
  23.2,                                   ! Humidity Indicating Conditions at Maximum Dry-Bulb {BasedOnField A3}
  99927,                                  ! Barometric Pressure {Pa}
  4.6,                                    ! Wind Speed {m/s}
  240,                                    ! Wind Direction {deg}
  0,                                      ! Sky Clearness
  0,                                      ! Rain Indicator
  0,                                      ! Snow Indicator
  21,                                     ! Day of Month
  7,                                      ! Month
  SummerDesignDay,                        ! Day Type
  0,                                      ! Daylight Saving Time Indicator
  Dewpoint,                               ! Humidity Indicating Type
  ,                                       ! Humidity Indicating Day Schedule Name
  DefaultMultipliers,                     ! Dry-Bulb Temperature Range Modifier Type
  ,                                       ! Dry-Bulb Temperature Range Modifier Schedule Name
  ASHRAETau,                              ! Solar Model Indicator
  ,                                       ! Beam Solar Day Schedule Name
  ,                                       ! Diffuse Solar Day Schedule Name
  0.504,                                  ! ASHRAE Taub {dimensionless}
  1.885;                                  ! ASHRAE Taud {dimensionless}

OS:ComponentData,
  {6ab5805c-c046-44f7-97d7-2eca41e558db}, ! Handle
  Component Data 1,                       ! Name
  {97ca5634-8f9e-46f9-8abd-6e9442a3689d}, ! UUID
  {de9ad81f-0031-4ab9-b9b7-51e8e0422d71}, ! Version UUID
  1366310136,                             ! Creation Timestamp
  1366310136,                             ! Version Timestamp
  {86d4cde5-ec5e-429e-a35d-c0b3f19880ef}; ! Name of Object 1

