
OS:Version,
  {b38ccf67-12a9-47ff-9a02-227a6af9941e}, ! Handle
  0.9.3;                                  ! Version Identifier

OS:SizingPeriod:DesignDay,
  {3275057e-c572-4474-9fba-55ff78b69984}, ! Handle
  Lufkin Angelina Co Ann Clg .4% Condns Enth=>MDB, ! Name
  32.2,                                   ! Maximum Dry-Bulb Temperature {C}
  11.4,                                   ! Daily Dry-Bulb Temperature Range {deltaC}
  83300,                                  ! Humidity Indicating Conditions at Maximum Dry-Bulb {BasedOnField A3}
  100296,                                 ! Barometric Pressure {Pa}
  3.4,                                    ! Wind Speed {m/s}
  200,                                    ! Wind Direction {deg}
  0,                                      ! Sky Clearness
  0,                                      ! Rain Indicator
  0,                                      ! Snow Indicator
  21,                                     ! Day of Month
  7,                                      ! Month
  SummerDesignDay,                        ! Day Type
  0,                                      ! Daylight Saving Time Indicator
  Enthalpy,                               ! Humidity Indicating Type
  ,                                       ! Humidity Indicating Day Schedule Name
  DefaultMultipliers,                     ! Dry-Bulb Temperature Range Modifier Type
  ,                                       ! Dry-Bulb Temperature Range Modifier Schedule Name
  ASHRAETau,                              ! Solar Model Indicator
  ,                                       ! Beam Solar Day Schedule Name
  ,                                       ! Diffuse Solar Day Schedule Name
  0.491,                                  ! ASHRAE Taub {dimensionless}
  2.003;                                  ! ASHRAE Taud {dimensionless}

OS:ComponentData,
  {eb60cd9b-cbce-48f0-9ec4-39ba87aca113}, ! Handle
  Component Data 1,                       ! Name
  {6a5f0d5d-b556-4582-aefb-c48dc335010a}, ! UUID
  {ec4e9665-f543-47b1-9876-8a24798e2968}, ! Version UUID
  1366310808,                             ! Creation Timestamp
  1366310808,                             ! Version Timestamp
  {3275057e-c572-4474-9fba-55ff78b69984}; ! Name of Object 1

