
OS:Version,
  {3cb9f0f9-2cdf-42e2-86f9-7e9a09dde524}, ! Handle
  0.9.3;                                  ! Version Identifier

OS:SizingPeriod:DesignDay,
  {49db0d87-d9a3-4e3d-b07a-4dac66a75191}, ! Handle
  Hastings Municipal Ann Clg .4% Condns WB=>MDB, ! Name
  32.2,                                   ! Maximum Dry-Bulb Temperature {C}
  11.9,                                   ! Daily Dry-Bulb Temperature Range {deltaC}
  25.2,                                   ! Humidity Indicating Conditions at Maximum Dry-Bulb {BasedOnField A3}
  94367,                                  ! Barometric Pressure {Pa}
  5.2,                                    ! Wind Speed {m/s}
  170,                                    ! Wind Direction {deg}
  0,                                      ! Sky Clearness
  0,                                      ! Rain Indicator
  0,                                      ! Snow Indicator
  21,                                     ! Day of Month
  7,                                      ! Month
  SummerDesignDay,                        ! Day Type
  0,                                      ! Daylight Saving Time Indicator
  Wetbulb,                                ! Humidity Indicating Type
  ,                                       ! Humidity Indicating Day Schedule Name
  DefaultMultipliers,                     ! Dry-Bulb Temperature Range Modifier Type
  ,                                       ! Dry-Bulb Temperature Range Modifier Schedule Name
  ASHRAETau,                              ! Solar Model Indicator
  ,                                       ! Beam Solar Day Schedule Name
  ,                                       ! Diffuse Solar Day Schedule Name
  0.404,                                  ! ASHRAE Taub {dimensionless}
  2.233;                                  ! ASHRAE Taud {dimensionless}

OS:ComponentData,
  {98d44752-91a5-4c39-b535-829bf975c2a9}, ! Handle
  Component Data 1,                       ! Name
  {128b1b20-9f52-46af-9421-918f66ab8492}, ! UUID
  {be7a6a6c-6784-4c4b-a0a7-966113c1b906}, ! Version UUID
  1366309126,                             ! Creation Timestamp
  1366309126,                             ! Version Timestamp
  {49db0d87-d9a3-4e3d-b07a-4dac66a75191}; ! Name of Object 1

