
OS:Version,
  {4583bc5a-6ebb-476d-95b3-d514baa1a962}, ! Handle
  0.9.3;                                  ! Version Identifier

OS:SizingPeriod:DesignDay,
  {58eed50f-c1b3-42dc-a466-a53405026699}, ! Handle
  Jacksonville Intl Arpt Ann Clg .4% Condns Enth=>MDB, ! Name
  31.9,                                   ! Maximum Dry-Bulb Temperature {C}
  10,                                     ! Daily Dry-Bulb Temperature Range {deltaC}
  82800,                                  ! Humidity Indicating Conditions at Maximum Dry-Bulb {BasedOnField A3}
  101229,                                 ! Barometric Pressure {Pa}
  3.6,                                    ! Wind Speed {m/s}
  260,                                    ! Wind Direction {deg}
  0,                                      ! Sky Clearness
  0,                                      ! Rain Indicator
  0,                                      ! Snow Indicator
  21,                                     ! Day of Month
  7,                                      ! Month
  SummerDesignDay,                        ! Day Type
  0,                                      ! Daylight Saving Time Indicator
  Enthalpy,                               ! Humidity Indicating Type
  ,                                       ! Humidity Indicating Day Schedule Name
  DefaultMultipliers,                     ! Dry-Bulb Temperature Range Modifier Type
  ,                                       ! Dry-Bulb Temperature Range Modifier Schedule Name
  ASHRAETau,                              ! Solar Model Indicator
  ,                                       ! Beam Solar Day Schedule Name
  ,                                       ! Diffuse Solar Day Schedule Name
  0.541,                                  ! ASHRAE Taub {dimensionless}
  1.863;                                  ! ASHRAE Taud {dimensionless}

OS:ComponentData,
  {37d2914e-b535-47bb-8a04-b85e35c67ffe}, ! Handle
  Component Data 1,                       ! Name
  {4021621e-c303-434b-9b4c-b980eed012f5}, ! UUID
  {6b14bf1e-8657-4405-85a1-5d5f36667f94}, ! Version UUID
  1366306823,                             ! Creation Timestamp
  1366306823,                             ! Version Timestamp
  {58eed50f-c1b3-42dc-a466-a53405026699}; ! Name of Object 1

