
OS:Version,
  {e1f434f5-6266-4eb5-ba89-be1db64ddfdf}, ! Handle
  0.9.3;                                  ! Version Identifier

OS:SizingPeriod:DesignDay,
  {be7f2ea1-1400-4e06-869d-5020c84c81d0}, ! Handle
  INDIANAPOLIS Ann Clg 2% Condns Enth=>MDB, ! Name
  28.4,                                   ! Maximum Dry-Bulb Temperature {C}
  10.2,                                   ! Daily Dry-Bulb Temperature Range {deltaC}
  73500,                                  ! Humidity Indicating Conditions at Maximum Dry-Bulb {BasedOnField A3}
  98404,                                  ! Barometric Pressure {Pa}
  4.8,                                    ! Wind Speed {m/s}
  220,                                    ! Wind Direction {deg}
  0,                                      ! Sky Clearness
  0,                                      ! Rain Indicator
  0,                                      ! Snow Indicator
  21,                                     ! Day of Month
  7,                                      ! Month
  SummerDesignDay,                        ! Day Type
  0,                                      ! Daylight Saving Time Indicator
  Enthalpy,                               ! Humidity Indicating Type
  ,                                       ! Humidity Indicating Day Schedule Name
  DefaultMultipliers,                     ! Dry-Bulb Temperature Range Modifier Type
  ,                                       ! Dry-Bulb Temperature Range Modifier Schedule Name
  ASHRAETau,                              ! Solar Model Indicator
  ,                                       ! Beam Solar Day Schedule Name
  ,                                       ! Diffuse Solar Day Schedule Name
  0.48,                                   ! ASHRAE Taub {dimensionless}
  1.954;                                  ! ASHRAE Taud {dimensionless}

OS:ComponentData,
  {56ac3e6b-92bf-4b8c-9a73-4de271bd59da}, ! Handle
  Component Data 1,                       ! Name
  {9dddf3fe-e757-4cf4-a0a4-ae18891067a8}, ! UUID
  {4fa6cc06-b810-496c-831a-f6d93e7faeb7}, ! Version UUID
  1366307461,                             ! Creation Timestamp
  1366307461,                             ! Version Timestamp
  {be7f2ea1-1400-4e06-869d-5020c84c81d0}; ! Name of Object 1

