
OS:Version,
  {48f34754-acd3-4cb3-b095-421886a18465}, ! Handle
  0.9.3;                                  ! Version Identifier

OS:SizingPeriod:DesignDay,
  {4aaea715-3de9-4151-9412-eb379ace8e22}, ! Handle
  Fort Myers Page Field Ann Hum_n 99.6% Condns DP=>MCDB, ! Name
  11.1,                                   ! Maximum Dry-Bulb Temperature {C}
  0,                                      ! Daily Dry-Bulb Temperature Range {deltaC}
  -2.5,                                   ! Humidity Indicating Conditions at Maximum Dry-Bulb {BasedOnField A3}
  101265,                                 ! Barometric Pressure {Pa}
  2.9,                                    ! Wind Speed {m/s}
  20,                                     ! Wind Direction {deg}
  0,                                      ! Sky Clearness
  0,                                      ! Rain Indicator
  0,                                      ! Snow Indicator
  21,                                     ! Day of Month
  1,                                      ! Month
  WinterDesignDay,                        ! Day Type
  0,                                      ! Daylight Saving Time Indicator
  Dewpoint,                               ! Humidity Indicating Type
  ,                                       ! Humidity Indicating Day Schedule Name
  DefaultMultipliers,                     ! Dry-Bulb Temperature Range Modifier Type
  ,                                       ! Dry-Bulb Temperature Range Modifier Schedule Name
  ASHRAEClearSky;                         ! Solar Model Indicator

OS:ComponentData,
  {ce309eb7-84ff-45d1-a369-e8401a865ea9}, ! Handle
  Component Data 1,                       ! Name
  {97910731-3a7b-40f2-a75e-52016fd60e7a}, ! UUID
  {9ca29912-a557-41c8-a3c3-6fda60b1b471}, ! Version UUID
  1366306800,                             ! Creation Timestamp
  1366306800,                             ! Version Timestamp
  {4aaea715-3de9-4151-9412-eb379ace8e22}; ! Name of Object 1

