
OS:Version,
  {329e4e3d-e4a1-4021-bf89-7c55a80a3f20}, ! Handle
  0.9.3;                                  ! Version Identifier

OS:SizingPeriod:DesignDay,
  {21ec02ef-bb90-4c46-9f42-07e1598df416}, ! Handle
  Des Moines Ann Htg Wind 99% Condns WS=>MCDB, ! Name
  -8.7,                                   ! Maximum Dry-Bulb Temperature {C}
  0,                                      ! Daily Dry-Bulb Temperature Range {deltaC}
  -8.7,                                   ! Humidity Indicating Conditions at Maximum Dry-Bulb {BasedOnField A3}
  97843,                                  ! Barometric Pressure {Pa}
  12.4,                                   ! Wind Speed {m/s}
  310,                                    ! Wind Direction {deg}
  0,                                      ! Sky Clearness
  0,                                      ! Rain Indicator
  0,                                      ! Snow Indicator
  21,                                     ! Day of Month
  1,                                      ! Month
  WinterDesignDay,                        ! Day Type
  0,                                      ! Daylight Saving Time Indicator
  Wetbulb,                                ! Humidity Indicating Type
  ,                                       ! Humidity Indicating Day Schedule Name
  DefaultMultipliers,                     ! Dry-Bulb Temperature Range Modifier Type
  ,                                       ! Dry-Bulb Temperature Range Modifier Schedule Name
  ASHRAEClearSky;                         ! Solar Model Indicator

OS:ComponentData,
  {9858c020-95de-4da5-9db2-c3174bc8d3fa}, ! Handle
  Component Data 1,                       ! Name
  {491f6a1d-dffd-463d-8f6d-beab3758bbc9}, ! UUID
  {deb47a88-7f3a-4d00-bcbf-ce60c6fbf6b2}, ! Version UUID
  1366307172,                             ! Creation Timestamp
  1366307172,                             ! Version Timestamp
  {21ec02ef-bb90-4c46-9f42-07e1598df416}; ! Name of Object 1

