
OS:Version,
  {2482cfa5-2bc9-4b97-8c31-33c5ef8488b6}, ! Handle
  0.9.3;                                  ! Version Identifier

OS:SizingPeriod:DesignDay,
  {7e772866-c81a-42d4-aace-8c6381fe4ae6}, ! Handle
  GLASGOW Ann Clg .4% Condns DP=>MDB,     ! Name
  23.6,                                   ! Maximum Dry-Bulb Temperature {C}
  14.5,                                   ! Daily Dry-Bulb Temperature Range {deltaC}
  17.4,                                   ! Humidity Indicating Conditions at Maximum Dry-Bulb {BasedOnField A3}
  93194,                                  ! Barometric Pressure {Pa}
  5.4,                                    ! Wind Speed {m/s}
  150,                                    ! Wind Direction {deg}
  0,                                      ! Sky Clearness
  0,                                      ! Rain Indicator
  0,                                      ! Snow Indicator
  21,                                     ! Day of Month
  7,                                      ! Month
  SummerDesignDay,                        ! Day Type
  0,                                      ! Daylight Saving Time Indicator
  Dewpoint,                               ! Humidity Indicating Type
  ,                                       ! Humidity Indicating Day Schedule Name
  DefaultMultipliers,                     ! Dry-Bulb Temperature Range Modifier Type
  ,                                       ! Dry-Bulb Temperature Range Modifier Schedule Name
  ASHRAETau,                              ! Solar Model Indicator
  ,                                       ! Beam Solar Day Schedule Name
  ,                                       ! Diffuse Solar Day Schedule Name
  0.424,                                  ! ASHRAE Taub {dimensionless}
  2.044;                                  ! ASHRAE Taud {dimensionless}

OS:ComponentData,
  {74f1a7a5-6c0f-4b9d-9acd-87ecbdbb7f82}, ! Handle
  Component Data 1,                       ! Name
  {65cfe55a-d637-4345-bc62-ea67939ae33e}, ! UUID
  {6d1515ae-1cbf-4f70-b52c-c956aa3e6a4b}, ! Version UUID
  1366308755,                             ! Creation Timestamp
  1366308755,                             ! Version Timestamp
  {7e772866-c81a-42d4-aace-8c6381fe4ae6}; ! Name of Object 1

