
OS:Version,
  {988fbc89-6ef8-4aef-811c-5b0a9623bdce}, ! Handle
  0.9.3;                                  ! Version Identifier

OS:SizingPeriod:DesignDay,
  {57d70fb8-baf8-4e70-87ce-194704e2ffe6}, ! Handle
  Hobart Municipal Ap Ann Clg 1% Condns Enth=>MDB, ! Name
  32.3,                                   ! Maximum Dry-Bulb Temperature {C}
  13,                                     ! Daily Dry-Bulb Temperature Range {deltaC}
  75400,                                  ! Humidity Indicating Conditions at Maximum Dry-Bulb {BasedOnField A3}
  95713,                                  ! Barometric Pressure {Pa}
  6.3,                                    ! Wind Speed {m/s}
  170,                                    ! Wind Direction {deg}
  0,                                      ! Sky Clearness
  0,                                      ! Rain Indicator
  0,                                      ! Snow Indicator
  21,                                     ! Day of Month
  7,                                      ! Month
  SummerDesignDay,                        ! Day Type
  0,                                      ! Daylight Saving Time Indicator
  Enthalpy,                               ! Humidity Indicating Type
  ,                                       ! Humidity Indicating Day Schedule Name
  DefaultMultipliers,                     ! Dry-Bulb Temperature Range Modifier Type
  ,                                       ! Dry-Bulb Temperature Range Modifier Schedule Name
  ASHRAETau,                              ! Solar Model Indicator
  ,                                       ! Beam Solar Day Schedule Name
  ,                                       ! Diffuse Solar Day Schedule Name
  0.417,                                  ! ASHRAE Taub {dimensionless}
  2.22;                                   ! ASHRAE Taud {dimensionless}

