
OS:Version,
  {899c322b-6e2f-4efc-b583-f8b4ee4bc9b6}, ! Handle
  0.9.3;                                  ! Version Identifier

OS:SizingPeriod:DesignDay,
  {2f910aff-2287-4e80-92c2-a604a926ca76}, ! Handle
  Buffalo Niagara Intl Ap Ann Clg 1% Condns DB=>MWB, ! Name
  28.9,                                   ! Maximum Dry-Bulb Temperature {C}
  9.3,                                    ! Daily Dry-Bulb Temperature Range {deltaC}
  21.1,                                   ! Humidity Indicating Conditions at Maximum Dry-Bulb {BasedOnField A3}
  98769,                                  ! Barometric Pressure {Pa}
  5.7,                                    ! Wind Speed {m/s}
  240,                                    ! Wind Direction {deg}
  0,                                      ! Sky Clearness
  0,                                      ! Rain Indicator
  0,                                      ! Snow Indicator
  21,                                     ! Day of Month
  7,                                      ! Month
  SummerDesignDay,                        ! Day Type
  0,                                      ! Daylight Saving Time Indicator
  Wetbulb,                                ! Humidity Indicating Type
  ,                                       ! Humidity Indicating Day Schedule Name
  DefaultMultipliers,                     ! Dry-Bulb Temperature Range Modifier Type
  ,                                       ! Dry-Bulb Temperature Range Modifier Schedule Name
  ASHRAETau,                              ! Solar Model Indicator
  ,                                       ! Beam Solar Day Schedule Name
  ,                                       ! Diffuse Solar Day Schedule Name
  0.462,                                  ! ASHRAE Taub {dimensionless}
  2.001;                                  ! ASHRAE Taud {dimensionless}

OS:ComponentData,
  {b4caf599-a243-4962-a7cf-8ff8a658010b}, ! Handle
  Component Data 1,                       ! Name
  {1fdc88eb-5b44-4ae3-af03-dbf153a6d66f}, ! UUID
  {39f06543-675c-4e3b-8484-6664f9035279}, ! Version UUID
  1366309607,                             ! Creation Timestamp
  1366309607,                             ! Version Timestamp
  {2f910aff-2287-4e80-92c2-a604a926ca76}; ! Name of Object 1

