
OS:Version,
  {fc3b5961-2d3d-42ea-99fc-9d2e484e8535}, ! Handle
  0.9.3;                                  ! Version Identifier

OS:SizingPeriod:DesignDay,
  {05c8b391-f14d-409d-995f-ef73c8b4bd2a}, ! Handle
  Dayton International Airport Ann Hum_n 99% Condns DP=>MCDB, ! Name
  -13.4,                                  ! Maximum Dry-Bulb Temperature {C}
  0,                                      ! Daily Dry-Bulb Temperature Range {deltaC}
  -18.5,                                  ! Humidity Indicating Conditions at Maximum Dry-Bulb {BasedOnField A3}
  97714,                                  ! Barometric Pressure {Pa}
  4.5,                                    ! Wind Speed {m/s}
  250,                                    ! Wind Direction {deg}
  0,                                      ! Sky Clearness
  0,                                      ! Rain Indicator
  0,                                      ! Snow Indicator
  21,                                     ! Day of Month
  1,                                      ! Month
  WinterDesignDay,                        ! Day Type
  0,                                      ! Daylight Saving Time Indicator
  Dewpoint,                               ! Humidity Indicating Type
  ,                                       ! Humidity Indicating Day Schedule Name
  DefaultMultipliers,                     ! Dry-Bulb Temperature Range Modifier Type
  ,                                       ! Dry-Bulb Temperature Range Modifier Schedule Name
  ASHRAEClearSky;                         ! Solar Model Indicator

OS:ComponentData,
  {594779e4-6e2c-4ecf-b8a5-f6045949fb26}, ! Handle
  Component Data 1,                       ! Name
  {12207c75-5ab6-4c50-ad0b-4f18cb1659c8}, ! UUID
  {5a5486b6-9b70-4592-812c-21543ad2a53d}, ! Version UUID
  1366309821,                             ! Creation Timestamp
  1366309821,                             ! Version Timestamp
  {05c8b391-f14d-409d-995f-ef73c8b4bd2a}; ! Name of Object 1

