
OS:Version,
  {787a1034-6a4c-417f-a238-8d5b1be100df}, ! Handle
  0.9.3;                                  ! Version Identifier

OS:SizingPeriod:DesignDay,
  {d3dccd5a-cb96-4595-8e39-36e89e05b653}, ! Handle
  Gallup Sen Clarke Fld Ann Clg 2% Condns DB=>MWB, ! Name
  30.3,                                   ! Maximum Dry-Bulb Temperature {C}
  17.9,                                   ! Daily Dry-Bulb Temperature Range {deltaC}
  13.7,                                   ! Humidity Indicating Conditions at Maximum Dry-Bulb {BasedOnField A3}
  79782,                                  ! Barometric Pressure {Pa}
  4.7,                                    ! Wind Speed {m/s}
  240,                                    ! Wind Direction {deg}
  0,                                      ! Sky Clearness
  0,                                      ! Rain Indicator
  0,                                      ! Snow Indicator
  21,                                     ! Day of Month
  7,                                      ! Month
  SummerDesignDay,                        ! Day Type
  0,                                      ! Daylight Saving Time Indicator
  Wetbulb,                                ! Humidity Indicating Type
  ,                                       ! Humidity Indicating Day Schedule Name
  DefaultMultipliers,                     ! Dry-Bulb Temperature Range Modifier Type
  ,                                       ! Dry-Bulb Temperature Range Modifier Schedule Name
  ASHRAETau,                              ! Solar Model Indicator
  ,                                       ! Beam Solar Day Schedule Name
  ,                                       ! Diffuse Solar Day Schedule Name
  0.383,                                  ! ASHRAE Taub {dimensionless}
  2.165;                                  ! ASHRAE Taud {dimensionless}

OS:ComponentData,
  {57d1841b-1207-4759-a4e1-a6d61d15ff22}, ! Handle
  Component Data 1,                       ! Name
  {6b7b2eba-568f-4f89-b180-cb2bc08ef31d}, ! UUID
  {7a57bac5-0808-4335-b16f-7322463a3cc3}, ! Version UUID
  1366309409,                             ! Creation Timestamp
  1366309409,                             ! Version Timestamp
  {d3dccd5a-cb96-4595-8e39-36e89e05b653}; ! Name of Object 1

