
OS:Version,
  {80a71e00-ca42-4545-b65e-f54dcf9143c5}, ! Handle
  0.9.3;                                  ! Version Identifier

OS:SizingPeriod:DesignDay,
  {bcbed883-5f86-402a-9ed0-3a5a8b33fec4}, ! Handle
  Baudette International Ap Ann Htg Wind 99.6% Condns WS=>MCDB, ! Name
  -10.9,                                  ! Maximum Dry-Bulb Temperature {C}
  0,                                      ! Daily Dry-Bulb Temperature Range {deltaC}
  -10.9,                                  ! Humidity Indicating Conditions at Maximum Dry-Bulb {BasedOnField A3}
  97423,                                  ! Barometric Pressure {Pa}
  10.7,                                   ! Wind Speed {m/s}
  310,                                    ! Wind Direction {deg}
  0,                                      ! Sky Clearness
  0,                                      ! Rain Indicator
  0,                                      ! Snow Indicator
  21,                                     ! Day of Month
  1,                                      ! Month
  WinterDesignDay,                        ! Day Type
  0,                                      ! Daylight Saving Time Indicator
  Wetbulb,                                ! Humidity Indicating Type
  ,                                       ! Humidity Indicating Day Schedule Name
  DefaultMultipliers,                     ! Dry-Bulb Temperature Range Modifier Type
  ,                                       ! Dry-Bulb Temperature Range Modifier Schedule Name
  ASHRAEClearSky;                         ! Solar Model Indicator

OS:ComponentData,
  {166285e7-ddd0-41d8-bc2e-319d41600cf4}, ! Handle
  Component Data 1,                       ! Name
  {a2df6ad8-99ec-4d13-b8af-48874fccccb9}, ! UUID
  {af6caae0-182e-4352-a751-292b30d68366}, ! Version UUID
  1366308153,                             ! Creation Timestamp
  1366308153,                             ! Version Timestamp
  {bcbed883-5f86-402a-9ed0-3a5a8b33fec4}; ! Name of Object 1

