
OS:Version,
  {3d7ce97d-2e42-43c5-becb-5db3e48d297b}, ! Handle
  0.9.3;                                  ! Version Identifier

OS:SizingPeriod:DesignDay,
  {84f478c4-3f17-4354-be65-4c76c11b8678}, ! Handle
  Colorado Springs Ann Htg Wind 99% Condns WS=>MCDB, ! Name
  1.2,                                    ! Maximum Dry-Bulb Temperature {C}
  0,                                      ! Daily Dry-Bulb Temperature Range {deltaC}
  1.2,                                    ! Humidity Indicating Conditions at Maximum Dry-Bulb {BasedOnField A3}
  80677,                                  ! Barometric Pressure {Pa}
  12.7,                                   ! Wind Speed {m/s}
  20,                                     ! Wind Direction {deg}
  0,                                      ! Sky Clearness
  0,                                      ! Rain Indicator
  0,                                      ! Snow Indicator
  21,                                     ! Day of Month
  12,                                     ! Month
  WinterDesignDay,                        ! Day Type
  0,                                      ! Daylight Saving Time Indicator
  Wetbulb,                                ! Humidity Indicating Type
  ,                                       ! Humidity Indicating Day Schedule Name
  DefaultMultipliers,                     ! Dry-Bulb Temperature Range Modifier Type
  ,                                       ! Dry-Bulb Temperature Range Modifier Schedule Name
  ASHRAEClearSky;                         ! Solar Model Indicator

OS:ComponentData,
  {e586e2b3-72d5-4fc9-b57d-e21dac8f4ddc}, ! Handle
  Component Data 1,                       ! Name
  {63d7cc2d-10ec-4223-9263-7c21295abfb4}, ! UUID
  {374303e0-33c6-4482-9f8a-28466b4aade0}, ! Version UUID
  1366306658,                             ! Creation Timestamp
  1366306658,                             ! Version Timestamp
  {84f478c4-3f17-4354-be65-4c76c11b8678}; ! Name of Object 1

