
OS:Version,
  {ef107fc9-e3b1-4168-a035-8b228b0dbb9c}, ! Handle
  0.9.3;                                  ! Version Identifier

OS:SizingPeriod:DesignDay,
  {8e3ae4f1-09dd-48fc-8c9d-82f39c5c470a}, ! Handle
  Barstow/Daggett Ann Htg Wind 99% Condns WS=>MCDB, ! Name
  11.5,                                   ! Maximum Dry-Bulb Temperature {C}
  0,                                      ! Daily Dry-Bulb Temperature Range {deltaC}
  11.5,                                   ! Humidity Indicating Conditions at Maximum Dry-Bulb {BasedOnField A3}
  94469,                                  ! Barometric Pressure {Pa}
  13.1,                                   ! Wind Speed {m/s}
  280,                                    ! Wind Direction {deg}
  0,                                      ! Sky Clearness
  0,                                      ! Rain Indicator
  0,                                      ! Snow Indicator
  21,                                     ! Day of Month
  12,                                     ! Month
  WinterDesignDay,                        ! Day Type
  0,                                      ! Daylight Saving Time Indicator
  Wetbulb,                                ! Humidity Indicating Type
  ,                                       ! Humidity Indicating Day Schedule Name
  DefaultMultipliers,                     ! Dry-Bulb Temperature Range Modifier Type
  ,                                       ! Dry-Bulb Temperature Range Modifier Schedule Name
  ASHRAEClearSky;                         ! Solar Model Indicator

OS:ComponentData,
  {01fa121a-0db6-4335-8759-70270a0344bc}, ! Handle
  Component Data 1,                       ! Name
  {b2fc57e8-4758-441d-b2a9-dca71cf64be7}, ! UUID
  {dba0b3cc-1dca-419a-8339-df84850f6b69}, ! Version UUID
  1366306373,                             ! Creation Timestamp
  1366306373,                             ! Version Timestamp
  {8e3ae4f1-09dd-48fc-8c9d-82f39c5c470a}; ! Name of Object 1

