
OS:Version,
  {e46e5fd1-3959-4370-ac49-77e5e0d533ba}, ! Handle
  0.9.3;                                  ! Version Identifier

OS:SizingPeriod:DesignDay,
  {b5f0f5d0-0748-4c7a-a6d2-216c5c370c4e}, ! Handle
  Hutchinson  Awos Ann Clg 1% Condns DB=>MWB, ! Name
  30.8,                                   ! Maximum Dry-Bulb Temperature {C}
  10.9,                                   ! Daily Dry-Bulb Temperature Range {deltaC}
  22.3,                                   ! Humidity Indicating Conditions at Maximum Dry-Bulb {BasedOnField A3}
  97504,                                  ! Barometric Pressure {Pa}
  4.5,                                    ! Wind Speed {m/s}
  170,                                    ! Wind Direction {deg}
  0,                                      ! Sky Clearness
  0,                                      ! Rain Indicator
  0,                                      ! Snow Indicator
  21,                                     ! Day of Month
  7,                                      ! Month
  SummerDesignDay,                        ! Day Type
  0,                                      ! Daylight Saving Time Indicator
  Wetbulb,                                ! Humidity Indicating Type
  ,                                       ! Humidity Indicating Day Schedule Name
  DefaultMultipliers,                     ! Dry-Bulb Temperature Range Modifier Type
  ,                                       ! Dry-Bulb Temperature Range Modifier Schedule Name
  ASHRAETau,                              ! Solar Model Indicator
  ,                                       ! Beam Solar Day Schedule Name
  ,                                       ! Diffuse Solar Day Schedule Name
  0.404,                                  ! ASHRAE Taub {dimensionless}
  2.234;                                  ! ASHRAE Taud {dimensionless}

OS:ComponentData,
  {1a786a10-d59d-4b06-85a2-ee1d64ad0d1e}, ! Handle
  Component Data 1,                       ! Name
  {b38e5fed-0d72-44e1-867b-ae931ccb1db7}, ! UUID
  {95a4fbdb-c9e4-48aa-881c-9772e49f3a97}, ! Version UUID
  1366308260,                             ! Creation Timestamp
  1366308260,                             ! Version Timestamp
  {b5f0f5d0-0748-4c7a-a6d2-216c5c370c4e}; ! Name of Object 1

