
OS:Version,
  {bab7a8b5-fa89-4859-a2ff-280af687f1b9}, ! Handle
  0.9.3;                                  ! Version Identifier

OS:SizingPeriod:DesignDay,
  {cbf33e13-035f-4e15-a0ab-79a87cc63cc9}, ! Handle
  Denver Centennial  Golden   N Ann Htg Wind 99.6% Condns WS=>MCDB, ! Name
  3.9,                                    ! Maximum Dry-Bulb Temperature {C}
  0,                                      ! Daily Dry-Bulb Temperature Range {deltaC}
  3.9,                                    ! Humidity Indicating Conditions at Maximum Dry-Bulb {BasedOnField A3}
  81198,                                  ! Barometric Pressure {Pa}
  12.2,                                   ! Wind Speed {m/s}
  340,                                    ! Wind Direction {deg}
  0,                                      ! Sky Clearness
  0,                                      ! Rain Indicator
  0,                                      ! Snow Indicator
  21,                                     ! Day of Month
  12,                                     ! Month
  WinterDesignDay,                        ! Day Type
  0,                                      ! Daylight Saving Time Indicator
  Wetbulb,                                ! Humidity Indicating Type
  ,                                       ! Humidity Indicating Day Schedule Name
  DefaultMultipliers,                     ! Dry-Bulb Temperature Range Modifier Type
  ,                                       ! Dry-Bulb Temperature Range Modifier Schedule Name
  ASHRAEClearSky;                         ! Solar Model Indicator

OS:ComponentData,
  {746e59b4-7dd8-492c-9007-c60e064e030a}, ! Handle
  Component Data 1,                       ! Name
  {f2fd352e-fe78-43f5-847c-09e51f3b82a8}, ! UUID
  {06b6a79e-df4b-465c-aeb9-f7eddd515256}, ! Version UUID
  1366306693,                             ! Creation Timestamp
  1366306693,                             ! Version Timestamp
  {cbf33e13-035f-4e15-a0ab-79a87cc63cc9}; ! Name of Object 1

