
OS:Version,
  {982fb9ea-a808-476e-8cb9-1d4f0f6e04c6}, ! Handle
  0.9.3;                                  ! Version Identifier

OS:SizingPeriod:DesignDay,
  {43b646b8-bd05-477b-a94c-60abe0690f50}, ! Handle
  Burbank Glendale Passadena Ap Ann Htg 99.6% Condns DB, ! Name
  3.9,                                    ! Maximum Dry-Bulb Temperature {C}
  0,                                      ! Daily Dry-Bulb Temperature Range {deltaC}
  3.9,                                    ! Humidity Indicating Conditions at Maximum Dry-Bulb {BasedOnField A3}
  98639,                                  ! Barometric Pressure {Pa}
  0.8,                                    ! Wind Speed {m/s}
  330,                                    ! Wind Direction {deg}
  0,                                      ! Sky Clearness
  0,                                      ! Rain Indicator
  0,                                      ! Snow Indicator
  21,                                     ! Day of Month
  12,                                     ! Month
  WinterDesignDay,                        ! Day Type
  0,                                      ! Daylight Saving Time Indicator
  Wetbulb,                                ! Humidity Indicating Type
  ,                                       ! Humidity Indicating Day Schedule Name
  DefaultMultipliers,                     ! Dry-Bulb Temperature Range Modifier Type
  ,                                       ! Dry-Bulb Temperature Range Modifier Schedule Name
  ASHRAEClearSky;                         ! Solar Model Indicator

OS:ComponentData,
  {2fc3190c-c56b-4f94-80e3-3cd4e1697230}, ! Handle
  Component Data 1,                       ! Name
  {4d832433-a821-4fd6-b8a1-6495240879f9}, ! UUID
  {9332fd7b-dddb-4d66-b02d-344d83ac6005}, ! Version UUID
  1366306392,                             ! Creation Timestamp
  1366306392,                             ! Version Timestamp
  {43b646b8-bd05-477b-a94c-60abe0690f50}; ! Name of Object 1

