
OS:Version,
  {46f374d5-149d-4cd0-9b4a-9156ee436878}, ! Handle
  0.9.3;                                  ! Version Identifier

OS:SizingPeriod:DesignDay,
  {23465210-baf7-4ed3-99d7-aff29e7ef697}, ! Handle
  BOISE Ann Clg .4% Condns DP=>MDB,       ! Name
  22.4,                                   ! Maximum Dry-Bulb Temperature {C}
  16.7,                                   ! Daily Dry-Bulb Temperature Range {deltaC}
  14.3,                                   ! Humidity Indicating Conditions at Maximum Dry-Bulb {BasedOnField A3}
  91257,                                  ! Barometric Pressure {Pa}
  4.2,                                    ! Wind Speed {m/s}
  330,                                    ! Wind Direction {deg}
  0,                                      ! Sky Clearness
  0,                                      ! Rain Indicator
  0,                                      ! Snow Indicator
  21,                                     ! Day of Month
  7,                                      ! Month
  SummerDesignDay,                        ! Day Type
  0,                                      ! Daylight Saving Time Indicator
  Dewpoint,                               ! Humidity Indicating Type
  ,                                       ! Humidity Indicating Day Schedule Name
  DefaultMultipliers,                     ! Dry-Bulb Temperature Range Modifier Type
  ,                                       ! Dry-Bulb Temperature Range Modifier Schedule Name
  ASHRAETau,                              ! Solar Model Indicator
  ,                                       ! Beam Solar Day Schedule Name
  ,                                       ! Diffuse Solar Day Schedule Name
  0.398,                                  ! ASHRAE Taub {dimensionless}
  2.125;                                  ! ASHRAE Taud {dimensionless}

OS:ComponentData,
  {31d62390-cba4-4e95-93a7-85c9021f1c7d}, ! Handle
  Component Data 1,                       ! Name
  {2e925184-6bee-4600-84c9-796682fbd2ce}, ! UUID
  {2bd3105d-f7a3-401a-8a79-bc3b090248b5}, ! Version UUID
  1366307262,                             ! Creation Timestamp
  1366307262,                             ! Version Timestamp
  {23465210-baf7-4ed3-99d7-aff29e7ef697}; ! Name of Object 1

