
OS:Version,
  {7375c7a9-8635-41f1-9fef-3ac58b541e86}, ! Handle
  0.9.3;                                  ! Version Identifier

OS:SizingPeriod:DesignDay,
  {6d314e96-94c6-4e00-a544-67816a06b34f}, ! Handle
  Bradford Regional Ap Ann Htg 99% Condns DB, ! Name
  -16.5,                                  ! Maximum Dry-Bulb Temperature {C}
  0,                                      ! Daily Dry-Bulb Temperature Range {deltaC}
  -16.5,                                  ! Humidity Indicating Conditions at Maximum Dry-Bulb {BasedOnField A3}
  93813,                                  ! Barometric Pressure {Pa}
  3.1,                                    ! Wind Speed {m/s}
  270,                                    ! Wind Direction {deg}
  0,                                      ! Sky Clearness
  0,                                      ! Rain Indicator
  0,                                      ! Snow Indicator
  21,                                     ! Day of Month
  1,                                      ! Month
  WinterDesignDay,                        ! Day Type
  0,                                      ! Daylight Saving Time Indicator
  Wetbulb,                                ! Humidity Indicating Type
  ,                                       ! Humidity Indicating Day Schedule Name
  DefaultMultipliers,                     ! Dry-Bulb Temperature Range Modifier Type
  ,                                       ! Dry-Bulb Temperature Range Modifier Schedule Name
  ASHRAEClearSky;                         ! Solar Model Indicator

OS:ComponentData,
  {5601dce4-cfdf-46df-b6c5-4c5bbf1984ce}, ! Handle
  Component Data 1,                       ! Name
  {976e056f-62d6-4da3-a874-6dbb3ca85b58}, ! UUID
  {ed9c5e29-4265-4126-b45e-3c0c9857067c}, ! Version UUID
  1366310148,                             ! Creation Timestamp
  1366310148,                             ! Version Timestamp
  {6d314e96-94c6-4e00-a544-67816a06b34f}; ! Name of Object 1

