
OS:Version,
  {5dc8bd43-56a3-46dc-88b3-0de3ba300eda}, ! Handle
  0.9.3;                                  ! Version Identifier

OS:SizingPeriod:DesignDay,
  {28f23226-9821-4dbc-bc08-7cca4d30359c}, ! Handle
  Hilo Ann Clg 2% Condns DB=>MWB,         ! Name
  28.8,                                   ! Maximum Dry-Bulb Temperature {C}
  7,                                      ! Daily Dry-Bulb Temperature Range {deltaC}
  23.2,                                   ! Humidity Indicating Conditions at Maximum Dry-Bulb {BasedOnField A3}
  101193,                                 ! Barometric Pressure {Pa}
  4.8,                                    ! Wind Speed {m/s}
  90,                                     ! Wind Direction {deg}
  0,                                      ! Sky Clearness
  0,                                      ! Rain Indicator
  0,                                      ! Snow Indicator
  21,                                     ! Day of Month
  8,                                      ! Month
  SummerDesignDay,                        ! Day Type
  0,                                      ! Daylight Saving Time Indicator
  Wetbulb,                                ! Humidity Indicating Type
  ,                                       ! Humidity Indicating Day Schedule Name
  DefaultMultipliers,                     ! Dry-Bulb Temperature Range Modifier Type
  ,                                       ! Dry-Bulb Temperature Range Modifier Schedule Name
  ASHRAETau,                              ! Solar Model Indicator
  ,                                       ! Beam Solar Day Schedule Name
  ,                                       ! Diffuse Solar Day Schedule Name
  0.411,                                  ! ASHRAE Taub {dimensionless}
  2.427;                                  ! ASHRAE Taud {dimensionless}

OS:ComponentData,
  {f87de30b-7014-4205-b9fa-394d52bb420e}, ! Handle
  Component Data 1,                       ! Name
  {e486c357-dcfa-468c-a88b-2ffe9f291570}, ! UUID
  {03eed0c3-2ed2-4f4a-9298-1031d9bfd59d}, ! Version UUID
  1366307081,                             ! Creation Timestamp
  1366307081,                             ! Version Timestamp
  {28f23226-9821-4dbc-bc08-7cca4d30359c}; ! Name of Object 1

