
OS:Version,
  {f704d1e5-5795-49fd-8f0b-8f231d77f43c}, ! Handle
  0.9.3;                                  ! Version Identifier

OS:SizingPeriod:DesignDay,
  {06356274-b38e-4cf2-b49c-f0cc42939489}, ! Handle
  Cedar Rapids Municipal Ap Ann Hum_n 99% Condns DP=>MCDB, ! Name
  -19.5,                                  ! Maximum Dry-Bulb Temperature {C}
  0,                                      ! Daily Dry-Bulb Temperature Range {deltaC}
  -24.2,                                  ! Humidity Indicating Conditions at Maximum Dry-Bulb {BasedOnField A3}
  98287,                                  ! Barometric Pressure {Pa}
  4.7,                                    ! Wind Speed {m/s}
  300,                                    ! Wind Direction {deg}
  0,                                      ! Sky Clearness
  0,                                      ! Rain Indicator
  0,                                      ! Snow Indicator
  21,                                     ! Day of Month
  1,                                      ! Month
  WinterDesignDay,                        ! Day Type
  0,                                      ! Daylight Saving Time Indicator
  Dewpoint,                               ! Humidity Indicating Type
  ,                                       ! Humidity Indicating Day Schedule Name
  DefaultMultipliers,                     ! Dry-Bulb Temperature Range Modifier Type
  ,                                       ! Dry-Bulb Temperature Range Modifier Schedule Name
  ASHRAEClearSky;                         ! Solar Model Indicator

OS:ComponentData,
  {bbfc72e0-5cfc-44d7-88cd-3a44d2093f5b}, ! Handle
  Component Data 1,                       ! Name
  {c13e3553-4daf-4c4a-aacb-b2f3cae860ac}, ! UUID
  {27be5458-8c6b-4bfd-94f1-d2a012f89cf9}, ! Version UUID
  1366307148,                             ! Creation Timestamp
  1366307148,                             ! Version Timestamp
  {06356274-b38e-4cf2-b49c-f0cc42939489}; ! Name of Object 1

