
OS:Version,
  {76889b89-d319-44ea-a5f9-4dbdb091d53d}, ! Handle
  0.9.3;                                  ! Version Identifier

OS:SizingPeriod:DesignDay,
  {9e4668b0-d46a-47a9-8928-2a25116fafe7}, ! Handle
  Kalamazoo Battle Cr Ann Clg 1% Condns WB=>MDB, ! Name
  28.3,                                   ! Maximum Dry-Bulb Temperature {C}
  11.1,                                   ! Daily Dry-Bulb Temperature Range {deltaC}
  23.7,                                   ! Humidity Indicating Conditions at Maximum Dry-Bulb {BasedOnField A3}
  98088,                                  ! Barometric Pressure {Pa}
  4.8,                                    ! Wind Speed {m/s}
  210,                                    ! Wind Direction {deg}
  0,                                      ! Sky Clearness
  0,                                      ! Rain Indicator
  0,                                      ! Snow Indicator
  21,                                     ! Day of Month
  7,                                      ! Month
  SummerDesignDay,                        ! Day Type
  0,                                      ! Daylight Saving Time Indicator
  Wetbulb,                                ! Humidity Indicating Type
  ,                                       ! Humidity Indicating Day Schedule Name
  DefaultMultipliers,                     ! Dry-Bulb Temperature Range Modifier Type
  ,                                       ! Dry-Bulb Temperature Range Modifier Schedule Name
  ASHRAETau,                              ! Solar Model Indicator
  ,                                       ! Beam Solar Day Schedule Name
  ,                                       ! Diffuse Solar Day Schedule Name
  0.424,                                  ! ASHRAE Taub {dimensionless}
  2.175;                                  ! ASHRAE Taud {dimensionless}

OS:ComponentData,
  {bcae0ca0-0cc9-4849-8100-84687de1beb2}, ! Handle
  Component Data 1,                       ! Name
  {76e72b8e-a6d6-4661-8244-1a6341e8bc86}, ! UUID
  {2ee3abff-9034-4ef4-85e9-17340e9f7f4d}, ! Version UUID
  1366308049,                             ! Creation Timestamp
  1366308049,                             ! Version Timestamp
  {9e4668b0-d46a-47a9-8928-2a25116fafe7}; ! Name of Object 1

