
OS:Version,
  {7c703112-8873-42e1-a3c3-faf7dd402ce4}, ! Handle
  0.9.3;                                  ! Version Identifier

OS:SizingPeriod:DesignDay,
  {9242a117-1fec-4f71-8b68-4e457132bbeb}, ! Handle
  Crescent City Faa Ai Ann Clg 1% Condns Enth=>MDB, ! Name
  17.9,                                   ! Maximum Dry-Bulb Temperature {C}
  5.7,                                    ! Daily Dry-Bulb Temperature Range {deltaC}
  42900,                                  ! Humidity Indicating Conditions at Maximum Dry-Bulb {BasedOnField A3}
  101121,                                 ! Barometric Pressure {Pa}
  3.9,                                    ! Wind Speed {m/s}
  310,                                    ! Wind Direction {deg}
  0,                                      ! Sky Clearness
  0,                                      ! Rain Indicator
  0,                                      ! Snow Indicator
  21,                                     ! Day of Month
  8,                                      ! Month
  SummerDesignDay,                        ! Day Type
  0,                                      ! Daylight Saving Time Indicator
  Enthalpy,                               ! Humidity Indicating Type
  ,                                       ! Humidity Indicating Day Schedule Name
  DefaultMultipliers,                     ! Dry-Bulb Temperature Range Modifier Type
  ,                                       ! Dry-Bulb Temperature Range Modifier Schedule Name
  ASHRAETau,                              ! Solar Model Indicator
  ,                                       ! Beam Solar Day Schedule Name
  ,                                       ! Diffuse Solar Day Schedule Name
  0.362,                                  ! ASHRAE Taub {dimensionless}
  2.529;                                  ! ASHRAE Taud {dimensionless}

OS:ComponentData,
  {a4c99c87-8683-400b-a433-cbe1ca32b653}, ! Handle
  Component Data 1,                       ! Name
  {7fb7ecf1-c3df-4680-9ec2-a7204dcb2ddb}, ! UUID
  {6522ae3e-f336-4e18-8723-48df44a1331e}, ! Version UUID
  1366306419,                             ! Creation Timestamp
  1366306419,                             ! Version Timestamp
  {9242a117-1fec-4f71-8b68-4e457132bbeb}; ! Name of Object 1

