
OS:Version,
  {f9d2c4be-bff9-4d4f-91fd-cd2bf0df0aac}, ! Handle
  0.9.3;                                  ! Version Identifier

OS:SizingPeriod:DesignDay,
  {e26f407f-144b-4f5c-9a60-40696eba170f}, ! Handle
  Caribou Ann Htg Wind 99.6% Condns WS=>MCDB, ! Name
  -12.9,                                  ! Maximum Dry-Bulb Temperature {C}
  0,                                      ! Daily Dry-Bulb Temperature Range {deltaC}
  -12.9,                                  ! Humidity Indicating Conditions at Maximum Dry-Bulb {BasedOnField A3}
  99063,                                  ! Barometric Pressure {Pa}
  12.9,                                   ! Wind Speed {m/s}
  290,                                    ! Wind Direction {deg}
  0,                                      ! Sky Clearness
  0,                                      ! Rain Indicator
  0,                                      ! Snow Indicator
  21,                                     ! Day of Month
  1,                                      ! Month
  WinterDesignDay,                        ! Day Type
  0,                                      ! Daylight Saving Time Indicator
  Wetbulb,                                ! Humidity Indicating Type
  ,                                       ! Humidity Indicating Day Schedule Name
  DefaultMultipliers,                     ! Dry-Bulb Temperature Range Modifier Type
  ,                                       ! Dry-Bulb Temperature Range Modifier Schedule Name
  ASHRAEClearSky;                         ! Solar Model Indicator

OS:ComponentData,
  {1479841a-c98e-4c21-bf26-5fba4f4ae664}, ! Handle
  Component Data 1,                       ! Name
  {69f7d8b3-f5cb-4a92-ab5c-552b6e24350c}, ! UUID
  {3a87a2c8-c4e6-4573-8af6-f97bd1648e5a}, ! Version UUID
  1366307890,                             ! Creation Timestamp
  1366307890,                             ! Version Timestamp
  {e26f407f-144b-4f5c-9a60-40696eba170f}; ! Name of Object 1

