
OS:Version,
  {d0532771-72ab-4312-a436-8232489938ce}, ! Handle
  0.9.3;                                  ! Version Identifier

OS:SizingPeriod:DesignDay,
  {ba4c80b3-9791-4204-8b71-faa6bea02381}, ! Handle
  Cedar City Municipal Ap Ann Clg 2% Condns WB=>MDB, ! Name
  26.9,                                   ! Maximum Dry-Bulb Temperature {C}
  16.7,                                   ! Daily Dry-Bulb Temperature Range {deltaC}
  16.3,                                   ! Humidity Indicating Conditions at Maximum Dry-Bulb {BasedOnField A3}
  82471,                                  ! Barometric Pressure {Pa}
  5,                                      ! Wind Speed {m/s}
  210,                                    ! Wind Direction {deg}
  0,                                      ! Sky Clearness
  0,                                      ! Rain Indicator
  0,                                      ! Snow Indicator
  21,                                     ! Day of Month
  7,                                      ! Month
  SummerDesignDay,                        ! Day Type
  0,                                      ! Daylight Saving Time Indicator
  Wetbulb,                                ! Humidity Indicating Type
  ,                                       ! Humidity Indicating Day Schedule Name
  DefaultMultipliers,                     ! Dry-Bulb Temperature Range Modifier Type
  ,                                       ! Dry-Bulb Temperature Range Modifier Schedule Name
  ASHRAETau,                              ! Solar Model Indicator
  ,                                       ! Beam Solar Day Schedule Name
  ,                                       ! Diffuse Solar Day Schedule Name
  0.415,                                  ! ASHRAE Taub {dimensionless}
  2.019;                                  ! ASHRAE Taud {dimensionless}

OS:ComponentData,
  {af4fd5ec-b65d-40ae-bd80-627e2f04f442}, ! Handle
  Component Data 1,                       ! Name
  {c3564bc8-8180-49d3-8098-bbe1837ca966}, ! UUID
  {a8f71e28-0214-42b8-b1a9-71e9b3cc0cad}, ! Version UUID
  1366310960,                             ! Creation Timestamp
  1366310960,                             ! Version Timestamp
  {ba4c80b3-9791-4204-8b71-faa6bea02381}; ! Name of Object 1

