
OS:Version,
  {e0045f76-3e09-4762-8ff7-2a5088f67efb}, ! Handle
  0.9.3;                                  ! Version Identifier

OS:SizingPeriod:DesignDay,
  {4076ae94-708e-45c4-b28d-8f54930d7d77}, ! Handle
  ANCHORAGE Ann Clg .4% Condns DP=>MDB,   ! Name
  17,                                     ! Maximum Dry-Bulb Temperature {C}
  6.6,                                    ! Daily Dry-Bulb Temperature Range {deltaC}
  13.5,                                   ! Humidity Indicating Conditions at Maximum Dry-Bulb {BasedOnField A3}
  100905,                                 ! Barometric Pressure {Pa}
  3.6,                                    ! Wind Speed {m/s}
  300,                                    ! Wind Direction {deg}
  0,                                      ! Sky Clearness
  0,                                      ! Rain Indicator
  0,                                      ! Snow Indicator
  21,                                     ! Day of Month
  7,                                      ! Month
  SummerDesignDay,                        ! Day Type
  0,                                      ! Daylight Saving Time Indicator
  Dewpoint,                               ! Humidity Indicating Type
  ,                                       ! Humidity Indicating Day Schedule Name
  DefaultMultipliers,                     ! Dry-Bulb Temperature Range Modifier Type
  ,                                       ! Dry-Bulb Temperature Range Modifier Schedule Name
  ASHRAETau,                              ! Solar Model Indicator
  ,                                       ! Beam Solar Day Schedule Name
  ,                                       ! Diffuse Solar Day Schedule Name
  0.387,                                  ! ASHRAE Taub {dimensionless}
  2.172;                                  ! ASHRAE Taud {dimensionless}

OS:ComponentData,
  {0496c995-15bd-49bc-a7db-bb795553ab1e}, ! Handle
  Component Data 1,                       ! Name
  {fea7eb89-d5d9-426f-ab51-3d9b8129673c}, ! UUID
  {5922c9c7-878f-46e6-ac3b-6e93776e0df3}, ! Version UUID
  1366304704,                             ! Creation Timestamp
  1366304704,                             ! Version Timestamp
  {4076ae94-708e-45c4-b28d-8f54930d7d77}; ! Name of Object 1

