
OS:Version,
  {2b3ad114-bbd7-4dbe-9c37-3de27c679dfe}, ! Handle
  0.9.3;                                  ! Version Identifier

OS:SizingPeriod:DesignDay,
  {fed418cb-2e5f-46af-afd0-16029e84f73a}, ! Handle
  Kaiser Mem  Awos Ann Clg .4% Condns DP=>MDB, ! Name
  29.6,                                   ! Maximum Dry-Bulb Temperature {C}
  11.7,                                   ! Daily Dry-Bulb Temperature Range {deltaC}
  23.8,                                   ! Humidity Indicating Conditions at Maximum Dry-Bulb {BasedOnField A3}
  98182,                                  ! Barometric Pressure {Pa}
  3.7,                                    ! Wind Speed {m/s}
  250,                                    ! Wind Direction {deg}
  0,                                      ! Sky Clearness
  0,                                      ! Rain Indicator
  0,                                      ! Snow Indicator
  21,                                     ! Day of Month
  7,                                      ! Month
  SummerDesignDay,                        ! Day Type
  0,                                      ! Daylight Saving Time Indicator
  Dewpoint,                               ! Humidity Indicating Type
  ,                                       ! Humidity Indicating Day Schedule Name
  DefaultMultipliers,                     ! Dry-Bulb Temperature Range Modifier Type
  ,                                       ! Dry-Bulb Temperature Range Modifier Schedule Name
  ASHRAETau,                              ! Solar Model Indicator
  ,                                       ! Beam Solar Day Schedule Name
  ,                                       ! Diffuse Solar Day Schedule Name
  0.456,                                  ! ASHRAE Taub {dimensionless}
  2.075;                                  ! ASHRAE Taud {dimensionless}

OS:ComponentData,
  {71e5b54e-4802-49a6-810c-b7ce2659bb2e}, ! Handle
  Component Data 1,                       ! Name
  {781360e8-a795-4f5e-92b7-58987df00d7f}, ! UUID
  {7229c3de-7f25-44db-bfde-7a7748038106}, ! Version UUID
  1366308515,                             ! Creation Timestamp
  1366308515,                             ! Version Timestamp
  {fed418cb-2e5f-46af-afd0-16029e84f73a}; ! Name of Object 1

