
OS:Version,
  {94fc54b6-a54b-4a0e-853b-69ad3c0effe8}, ! Handle
  0.9.3;                                  ! Version Identifier

OS:SizingPeriod:DesignDay,
  {73ae6bea-f5df-4380-9a4b-c1eb88031266}, ! Handle
  Chicago/Midway Ann Hum_n 99.6% Condns DP=>MCDB, ! Name
  -18,                                    ! Maximum Dry-Bulb Temperature {C}
  0,                                      ! Daily Dry-Bulb Temperature Range {deltaC}
  -24.5,                                  ! Humidity Indicating Conditions at Maximum Dry-Bulb {BasedOnField A3}
  99099,                                  ! Barometric Pressure {Pa}
  5.3,                                    ! Wind Speed {m/s}
  300,                                    ! Wind Direction {deg}
  0,                                      ! Sky Clearness
  0,                                      ! Rain Indicator
  0,                                      ! Snow Indicator
  21,                                     ! Day of Month
  1,                                      ! Month
  WinterDesignDay,                        ! Day Type
  0,                                      ! Daylight Saving Time Indicator
  Dewpoint,                               ! Humidity Indicating Type
  ,                                       ! Humidity Indicating Day Schedule Name
  DefaultMultipliers,                     ! Dry-Bulb Temperature Range Modifier Type
  ,                                       ! Dry-Bulb Temperature Range Modifier Schedule Name
  ASHRAEClearSky;                         ! Solar Model Indicator

OS:ComponentData,
  {4508a29a-85a0-4506-9e2e-6b1bbb78a1fb}, ! Handle
  Component Data 1,                       ! Name
  {5e011630-3aa9-4b8e-8bf1-6a14fc43fa20}, ! UUID
  {96196730-f970-4f28-b71e-71d27b5e2a62}, ! Version UUID
  1366307338,                             ! Creation Timestamp
  1366307338,                             ! Version Timestamp
  {73ae6bea-f5df-4380-9a4b-c1eb88031266}; ! Name of Object 1

