
OS:Version,
  {8cdea7cd-a7ef-484d-9e6e-08e17b40b0d7}, ! Handle
  0.9.3;                                  ! Version Identifier

OS:SizingPeriod:DesignDay,
  {608800a0-a07d-4adc-963a-40fed2d16c26}, ! Handle
  Fort Knox Godman Aaf Ann Clg .4% Condns WB=>MDB, ! Name
  31.5,                                   ! Maximum Dry-Bulb Temperature {C}
  10.7,                                   ! Daily Dry-Bulb Temperature Range {deltaC}
  25.8,                                   ! Humidity Indicating Conditions at Maximum Dry-Bulb {BasedOnField A3}
  98487,                                  ! Barometric Pressure {Pa}
  2.7,                                    ! Wind Speed {m/s}
  260,                                    ! Wind Direction {deg}
  0,                                      ! Sky Clearness
  0,                                      ! Rain Indicator
  0,                                      ! Snow Indicator
  21,                                     ! Day of Month
  7,                                      ! Month
  SummerDesignDay,                        ! Day Type
  0,                                      ! Daylight Saving Time Indicator
  Wetbulb,                                ! Humidity Indicating Type
  ,                                       ! Humidity Indicating Day Schedule Name
  DefaultMultipliers,                     ! Dry-Bulb Temperature Range Modifier Type
  ,                                       ! Dry-Bulb Temperature Range Modifier Schedule Name
  ASHRAETau,                              ! Solar Model Indicator
  ,                                       ! Beam Solar Day Schedule Name
  ,                                       ! Diffuse Solar Day Schedule Name
  0.505,                                  ! ASHRAE Taub {dimensionless}
  1.883;                                  ! ASHRAE Taud {dimensionless}

OS:ComponentData,
  {220b57df-dbbc-4abc-91b4-4e722ba197b9}, ! Handle
  Component Data 1,                       ! Name
  {50a3a00c-c717-4874-a31b-fd999a544562}, ! UUID
  {3111d66d-2063-45c4-b56b-c26629cf7ec5}, ! Version UUID
  1366307633,                             ! Creation Timestamp
  1366307633,                             ! Version Timestamp
  {608800a0-a07d-4adc-963a-40fed2d16c26}; ! Name of Object 1

