
OS:Version,
  {650c4494-da7e-45a5-9952-4b0369a1d445}, ! Handle
  0.9.3;                                  ! Version Identifier

OS:SizingPeriod:DesignDay,
  {656271cd-4c9b-4bfd-a75d-73de001b306c}, ! Handle
  Cape Hatteras Ann Clg .4% Condns WB=>MDB, ! Name
  28.8,                                   ! Maximum Dry-Bulb Temperature {C}
  4.4,                                    ! Daily Dry-Bulb Temperature Range {deltaC}
  26.9,                                   ! Humidity Indicating Conditions at Maximum Dry-Bulb {BasedOnField A3}
  101289,                                 ! Barometric Pressure {Pa}
  4.4,                                    ! Wind Speed {m/s}
  0,                                      ! Wind Direction {deg}
  0,                                      ! Sky Clearness
  0,                                      ! Rain Indicator
  0,                                      ! Snow Indicator
  21,                                     ! Day of Month
  7,                                      ! Month
  SummerDesignDay,                        ! Day Type
  0,                                      ! Daylight Saving Time Indicator
  Wetbulb,                                ! Humidity Indicating Type
  ,                                       ! Humidity Indicating Day Schedule Name
  DefaultMultipliers,                     ! Dry-Bulb Temperature Range Modifier Type
  ,                                       ! Dry-Bulb Temperature Range Modifier Schedule Name
  ASHRAETau,                              ! Solar Model Indicator
  ,                                       ! Beam Solar Day Schedule Name
  ,                                       ! Diffuse Solar Day Schedule Name
  0.57,                                   ! ASHRAE Taub {dimensionless}
  1.801;                                  ! ASHRAE Taud {dimensionless}

OS:ComponentData,
  {7095df38-46cf-44c5-bd7a-56e7bdfdadf0}, ! Handle
  Component Data 1,                       ! Name
  {ebbaf169-e21a-41f2-8446-413ca9d70e19}, ! UUID
  {317634fc-4414-41fb-9800-e5c0cf43c07d}, ! Version UUID
  1366308873,                             ! Creation Timestamp
  1366308873,                             ! Version Timestamp
  {656271cd-4c9b-4bfd-a75d-73de001b306c}; ! Name of Object 1

