
OS:Version,
  {65725bf2-d462-4ef5-9c8b-b437b3a1cc43}, ! Handle
  0.9.3;                                  ! Version Identifier

OS:SizingPeriod:DesignDay,
  {a2ebc5e9-1725-4341-bf8b-5515d87a25b2}, ! Handle
  Ambler Ann Htg Wind 99% Condns WS=>MCDB, ! Name
  -15.7,                                  ! Maximum Dry-Bulb Temperature {C}
  0,                                      ! Daily Dry-Bulb Temperature Range {deltaC}
  -15.7,                                  ! Humidity Indicating Conditions at Maximum Dry-Bulb {BasedOnField A3}
  100272,                                 ! Barometric Pressure {Pa}
  9.2,                                    ! Wind Speed {m/s}
  40,                                     ! Wind Direction {deg}
  0,                                      ! Sky Clearness
  0,                                      ! Rain Indicator
  0,                                      ! Snow Indicator
  21,                                     ! Day of Month
  1,                                      ! Month
  WinterDesignDay,                        ! Day Type
  0,                                      ! Daylight Saving Time Indicator
  Wetbulb,                                ! Humidity Indicating Type
  ,                                       ! Humidity Indicating Day Schedule Name
  DefaultMultipliers,                     ! Dry-Bulb Temperature Range Modifier Type
  ,                                       ! Dry-Bulb Temperature Range Modifier Schedule Name
  ASHRAEClearSky;                         ! Solar Model Indicator

OS:ComponentData,
  {7be702fc-7ce0-4922-9c0f-ae14b7f66d16}, ! Handle
  Component Data 1,                       ! Name
  {6a11170c-5562-4b1e-afd3-1ca29aea4c0a}, ! UUID
  {83967fff-8356-4c84-8543-43eb6968611d}, ! Version UUID
  1366304683,                             ! Creation Timestamp
  1366304683,                             ! Version Timestamp
  {a2ebc5e9-1725-4341-bf8b-5515d87a25b2}; ! Name of Object 1

