
OS:Version,
  {f3384e6b-94c0-45b0-bc18-a10a929a950a}, ! Handle
  0.9.3;                                  ! Version Identifier

OS:SizingPeriod:DesignDay,
  {f9d8994d-da98-4eb6-9a96-c06c5519a205}, ! Handle
  Fairchild Afb Ann Clg 1% Condns WB=>MDB, ! Name
  28.4,                                   ! Maximum Dry-Bulb Temperature {C}
  14.5,                                   ! Daily Dry-Bulb Temperature Range {deltaC}
  17.4,                                   ! Humidity Indicating Conditions at Maximum Dry-Bulb {BasedOnField A3}
  92712,                                  ! Barometric Pressure {Pa}
  3.4,                                    ! Wind Speed {m/s}
  240,                                    ! Wind Direction {deg}
  0,                                      ! Sky Clearness
  0,                                      ! Rain Indicator
  0,                                      ! Snow Indicator
  21,                                     ! Day of Month
  7,                                      ! Month
  SummerDesignDay,                        ! Day Type
  0,                                      ! Daylight Saving Time Indicator
  Wetbulb,                                ! Humidity Indicating Type
  ,                                       ! Humidity Indicating Day Schedule Name
  DefaultMultipliers,                     ! Dry-Bulb Temperature Range Modifier Type
  ,                                       ! Dry-Bulb Temperature Range Modifier Schedule Name
  ASHRAETau,                              ! Solar Model Indicator
  ,                                       ! Beam Solar Day Schedule Name
  ,                                       ! Diffuse Solar Day Schedule Name
  0.353,                                  ! ASHRAE Taub {dimensionless}
  2.387;                                  ! ASHRAE Taud {dimensionless}

OS:ComponentData,
  {d9b34511-9523-4298-aba8-805bb908dcc8}, ! Handle
  Component Data 1,                       ! Name
  {a5fc0acd-12c0-4471-b63e-78c8857a023c}, ! UUID
  {b4c88415-385c-473e-a8b4-3d607403d662}, ! Version UUID
  1366311280,                             ! Creation Timestamp
  1366311280,                             ! Version Timestamp
  {f9d8994d-da98-4eb6-9a96-c06c5519a205}; ! Name of Object 1

