
OS:Version,
  {f732668b-a492-4358-a581-ccf3b177364d}, ! Handle
  0.9.3;                                  ! Version Identifier

OS:SizingPeriod:DesignDay,
  {7f1dc3ec-03c4-4e43-abb7-04a94db77a51}, ! Handle
  FRESNO Ann Clg 2% Condns WB=>MDB,       ! Name
  34.4,                                   ! Maximum Dry-Bulb Temperature {C}
  16.4,                                   ! Daily Dry-Bulb Temperature Range {deltaC}
  21.5,                                   ! Humidity Indicating Conditions at Maximum Dry-Bulb {BasedOnField A3}
  100129,                                 ! Barometric Pressure {Pa}
  3.7,                                    ! Wind Speed {m/s}
  300,                                    ! Wind Direction {deg}
  0,                                      ! Sky Clearness
  0,                                      ! Rain Indicator
  0,                                      ! Snow Indicator
  21,                                     ! Day of Month
  7,                                      ! Month
  SummerDesignDay,                        ! Day Type
  0,                                      ! Daylight Saving Time Indicator
  Wetbulb,                                ! Humidity Indicating Type
  ,                                       ! Humidity Indicating Day Schedule Name
  DefaultMultipliers,                     ! Dry-Bulb Temperature Range Modifier Type
  ,                                       ! Dry-Bulb Temperature Range Modifier Schedule Name
  ASHRAETau,                              ! Solar Model Indicator
  ,                                       ! Beam Solar Day Schedule Name
  ,                                       ! Diffuse Solar Day Schedule Name
  0.428,                                  ! ASHRAE Taub {dimensionless}
  2.152;                                  ! ASHRAE Taud {dimensionless}

OS:ComponentData,
  {114aa3f7-9a1f-42ab-82e8-3e48380e4765}, ! Handle
  Component Data 1,                       ! Name
  {749962ea-df28-42d6-b292-fff4e95cb5af}, ! UUID
  {e4af5e17-6a10-47dc-af88-ac6055d8f551}, ! Version UUID
  1366306433,                             ! Creation Timestamp
  1366306433,                             ! Version Timestamp
  {7f1dc3ec-03c4-4e43-abb7-04a94db77a51}; ! Name of Object 1

