
OS:Version,
  {ba0c9fe8-b6b6-4732-b70e-6a7047402883}, ! Handle
  0.9.3;                                  ! Version Identifier

OS:SizingPeriod:DesignDay,
  {3dc6fb04-e772-47db-8764-957ed8496fe4}, ! Handle
  Baton Rouge Ann Clg .4% Condns WB=>MDB, ! Name
  31.7,                                   ! Maximum Dry-Bulb Temperature {C}
  9.4,                                    ! Daily Dry-Bulb Temperature Range {deltaC}
  26.9,                                   ! Humidity Indicating Conditions at Maximum Dry-Bulb {BasedOnField A3}
  101073,                                 ! Barometric Pressure {Pa}
  3.3,                                    ! Wind Speed {m/s}
  260,                                    ! Wind Direction {deg}
  0,                                      ! Sky Clearness
  0,                                      ! Rain Indicator
  0,                                      ! Snow Indicator
  21,                                     ! Day of Month
  7,                                      ! Month
  SummerDesignDay,                        ! Day Type
  0,                                      ! Daylight Saving Time Indicator
  Wetbulb,                                ! Humidity Indicating Type
  ,                                       ! Humidity Indicating Day Schedule Name
  DefaultMultipliers,                     ! Dry-Bulb Temperature Range Modifier Type
  ,                                       ! Dry-Bulb Temperature Range Modifier Schedule Name
  ASHRAETau,                              ! Solar Model Indicator
  ,                                       ! Beam Solar Day Schedule Name
  ,                                       ! Diffuse Solar Day Schedule Name
  0.542,                                  ! ASHRAE Taub {dimensionless}
  1.845;                                  ! ASHRAE Taud {dimensionless}

OS:ComponentData,
  {8a818cf1-71fc-4ec8-9fef-5cc42bebe858}, ! Handle
  Component Data 1,                       ! Name
  {cc8752cf-cc45-4c09-8596-4c1f3bcc7cd5}, ! UUID
  {ff2d096f-6d7e-491a-9729-8bd8c8022311}, ! Version UUID
  1366307704,                             ! Creation Timestamp
  1366307704,                             ! Version Timestamp
  {3dc6fb04-e772-47db-8764-957ed8496fe4}; ! Name of Object 1

