
OS:Version,
  {2971a5d1-22b3-4fe4-8c90-493ad1e9a0a4}, ! Handle
  0.9.3;                                  ! Version Identifier

OS:SizingPeriod:DesignDay,
  {79842c9d-dbf0-4440-9ec8-c3ae68cee421}, ! Handle
  Eugene Mahlon Sweet Arpt  Uo Ann Clg .4% Condns DP=>MDB, ! Name
  23.6,                                   ! Maximum Dry-Bulb Temperature {C}
  15.8,                                   ! Daily Dry-Bulb Temperature Range {deltaC}
  16.7,                                   ! Humidity Indicating Conditions at Maximum Dry-Bulb {BasedOnField A3}
  100022,                                 ! Barometric Pressure {Pa}
  5.1,                                    ! Wind Speed {m/s}
  0,                                      ! Wind Direction {deg}
  0,                                      ! Sky Clearness
  0,                                      ! Rain Indicator
  0,                                      ! Snow Indicator
  21,                                     ! Day of Month
  7,                                      ! Month
  SummerDesignDay,                        ! Day Type
  0,                                      ! Daylight Saving Time Indicator
  Dewpoint,                               ! Humidity Indicating Type
  ,                                       ! Humidity Indicating Day Schedule Name
  DefaultMultipliers,                     ! Dry-Bulb Temperature Range Modifier Type
  ,                                       ! Dry-Bulb Temperature Range Modifier Schedule Name
  ASHRAETau,                              ! Solar Model Indicator
  ,                                       ! Beam Solar Day Schedule Name
  ,                                       ! Diffuse Solar Day Schedule Name
  0.357,                                  ! ASHRAE Taub {dimensionless}
  2.559;                                  ! ASHRAE Taud {dimensionless}

OS:ComponentData,
  {2871b431-4142-4939-a9e6-cb07ad86acf9}, ! Handle
  Component Data 1,                       ! Name
  {87e7561b-59a1-409e-89f2-0bb13d793cb0}, ! UUID
  {03eed9a7-b838-46bb-adac-5f773f22e26a}, ! Version UUID
  1366310008,                             ! Creation Timestamp
  1366310008,                             ! Version Timestamp
  {79842c9d-dbf0-4440-9ec8-c3ae68cee421}; ! Name of Object 1

