
OS:Version,
  {dd3466da-0101-4a9e-a488-4b506a045bce}, ! Handle
  0.9.3;                                  ! Version Identifier

OS:SizingPeriod:DesignDay,
  {a20bae5f-4a00-44a0-9024-fbdcc213c469}, ! Handle
  Crescent City Faa Ai Ann Htg Wind 99.6% Condns WS=>MCDB, ! Name
  11.8,                                   ! Maximum Dry-Bulb Temperature {C}
  0,                                      ! Daily Dry-Bulb Temperature Range {deltaC}
  11.8,                                   ! Humidity Indicating Conditions at Maximum Dry-Bulb {BasedOnField A3}
  101121,                                 ! Barometric Pressure {Pa}
  15.6,                                   ! Wind Speed {m/s}
  90,                                     ! Wind Direction {deg}
  0,                                      ! Sky Clearness
  0,                                      ! Rain Indicator
  0,                                      ! Snow Indicator
  21,                                     ! Day of Month
  12,                                     ! Month
  WinterDesignDay,                        ! Day Type
  0,                                      ! Daylight Saving Time Indicator
  Wetbulb,                                ! Humidity Indicating Type
  ,                                       ! Humidity Indicating Day Schedule Name
  DefaultMultipliers,                     ! Dry-Bulb Temperature Range Modifier Type
  ,                                       ! Dry-Bulb Temperature Range Modifier Schedule Name
  ASHRAEClearSky;                         ! Solar Model Indicator

OS:ComponentData,
  {9066f3f1-d16f-4511-8978-117b84b0420f}, ! Handle
  Component Data 1,                       ! Name
  {2a3cef2a-525f-4500-a6b9-41285f05c307}, ! UUID
  {f11f81e7-3aa6-4c08-b27b-188d439c550f}, ! Version UUID
  1366306417,                             ! Creation Timestamp
  1366306417,                             ! Version Timestamp
  {a20bae5f-4a00-44a0-9024-fbdcc213c469}; ! Name of Object 1

