
OS:Version,
  {2d5127d6-e30c-4aa8-8f58-d19aaf37ed7d}, ! Handle
  0.9.3;                                  ! Version Identifier

OS:SizingPeriod:DesignDay,
  {31e338b5-1451-467b-8b11-891cb8b836a8}, ! Handle
  Fresno Ann Clg .4% Condns WB=>MDB,      ! Name
  36.7,                                   ! Maximum Dry-Bulb Temperature {C}
  16.4,                                   ! Daily Dry-Bulb Temperature Range {deltaC}
  23.2,                                   ! Humidity Indicating Conditions at Maximum Dry-Bulb {BasedOnField A3}
  100129,                                 ! Barometric Pressure {Pa}
  3.7,                                    ! Wind Speed {m/s}
  300,                                    ! Wind Direction {deg}
  0,                                      ! Sky Clearness
  0,                                      ! Rain Indicator
  0,                                      ! Snow Indicator
  21,                                     ! Day of Month
  7,                                      ! Month
  SummerDesignDay,                        ! Day Type
  0,                                      ! Daylight Saving Time Indicator
  Wetbulb,                                ! Humidity Indicating Type
  ,                                       ! Humidity Indicating Day Schedule Name
  DefaultMultipliers,                     ! Dry-Bulb Temperature Range Modifier Type
  ,                                       ! Dry-Bulb Temperature Range Modifier Schedule Name
  ASHRAETau,                              ! Solar Model Indicator
  ,                                       ! Beam Solar Day Schedule Name
  ,                                       ! Diffuse Solar Day Schedule Name
  0.428,                                  ! ASHRAE Taub {dimensionless}
  2.152;                                  ! ASHRAE Taud {dimensionless}

OS:ComponentData,
  {819d22d9-d283-47eb-a90d-9323b0b1bf04}, ! Handle
  Component Data 1,                       ! Name
  {42879bcd-889d-4a34-b164-27e8b0f83060}, ! UUID
  {c4262663-2210-42f4-ada7-f567b7255103}, ! Version UUID
  1366306436,                             ! Creation Timestamp
  1366306436,                             ! Version Timestamp
  {31e338b5-1451-467b-8b11-891cb8b836a8}; ! Name of Object 1

