
OS:Version,
  {fb9850a1-0e9b-412f-ba1f-dbdb5c64f39e}, ! Handle
  0.9.3;                                  ! Version Identifier

OS:SizingPeriod:DesignDay,
  {584fd88d-58d2-4cda-ac11-1d5d5ad4f3dc}, ! Handle
  Lovelock Ann Htg Wind 99.6% Condns WS=>MCDB, ! Name
  7.8,                                    ! Maximum Dry-Bulb Temperature {C}
  0,                                      ! Daily Dry-Bulb Temperature Range {deltaC}
  7.8,                                    ! Humidity Indicating Conditions at Maximum Dry-Bulb {BasedOnField A3}
  87844,                                  ! Barometric Pressure {Pa}
  11.6,                                   ! Wind Speed {m/s}
  300,                                    ! Wind Direction {deg}
  0,                                      ! Sky Clearness
  0,                                      ! Rain Indicator
  0,                                      ! Snow Indicator
  21,                                     ! Day of Month
  12,                                     ! Month
  WinterDesignDay,                        ! Day Type
  0,                                      ! Daylight Saving Time Indicator
  Wetbulb,                                ! Humidity Indicating Type
  ,                                       ! Humidity Indicating Day Schedule Name
  DefaultMultipliers,                     ! Dry-Bulb Temperature Range Modifier Type
  ,                                       ! Dry-Bulb Temperature Range Modifier Schedule Name
  ASHRAEClearSky;                         ! Solar Model Indicator

OS:ComponentData,
  {c4085efa-d61e-484b-9323-e668dac08675}, ! Handle
  Component Data 1,                       ! Name
  {c9fc408a-cd55-4c2f-9550-9d331054d9a3}, ! UUID
  {12d456d5-e6ae-4764-a89b-e944e81e73f8}, ! Version UUID
  1366309510,                             ! Creation Timestamp
  1366309510,                             ! Version Timestamp
  {584fd88d-58d2-4cda-ac11-1d5d5ad4f3dc}; ! Name of Object 1

