
OS:Version,
  {924c3c86-18c4-415b-8e5a-bd325f7b5faf}, ! Handle
  0.9.3;                                  ! Version Identifier

OS:SizingPeriod:DesignDay,
  {26de06a9-eddc-4d88-963b-d89bd608504e}, ! Handle
  Key West Intl Arpt Ann Clg 2% Condns Enth=>MDB, ! Name
  30.5,                                   ! Maximum Dry-Bulb Temperature {C}
  5.1,                                    ! Daily Dry-Bulb Temperature Range {deltaC}
  82900,                                  ! Humidity Indicating Conditions at Maximum Dry-Bulb {BasedOnField A3}
  101313,                                 ! Barometric Pressure {Pa}
  4,                                      ! Wind Speed {m/s}
  150,                                    ! Wind Direction {deg}
  0,                                      ! Sky Clearness
  0,                                      ! Rain Indicator
  0,                                      ! Snow Indicator
  21,                                     ! Day of Month
  8,                                      ! Month
  SummerDesignDay,                        ! Day Type
  0,                                      ! Daylight Saving Time Indicator
  Enthalpy,                               ! Humidity Indicating Type
  ,                                       ! Humidity Indicating Day Schedule Name
  DefaultMultipliers,                     ! Dry-Bulb Temperature Range Modifier Type
  ,                                       ! Dry-Bulb Temperature Range Modifier Schedule Name
  ASHRAETau,                              ! Solar Model Indicator
  ,                                       ! Beam Solar Day Schedule Name
  ,                                       ! Diffuse Solar Day Schedule Name
  0.461,                                  ! ASHRAE Taub {dimensionless}
  2.194;                                  ! ASHRAE Taud {dimensionless}

OS:ComponentData,
  {62a0b5a8-0a2b-4ad4-a0d6-4aa311df25a7}, ! Handle
  Component Data 1,                       ! Name
  {2f1552b1-c7aa-461b-b6cd-796e6d25650b}, ! UUID
  {b624f71a-73b1-4b52-8530-985119b8a3ec}, ! Version UUID
  1366306838,                             ! Creation Timestamp
  1366306838,                             ! Version Timestamp
  {26de06a9-eddc-4d88-963b-d89bd608504e}; ! Name of Object 1

