
OS:Version,
  {115027aa-ec7e-42d7-a83d-f455c2489d0f}, ! Handle
  0.9.3;                                  ! Version Identifier

OS:SizingPeriod:DesignDay,
  {a6248b4f-5759-4e2b-b8f2-b1779017bce4}, ! Handle
  Dillingham  Amos Ann Clg .4% Condns Enth=>MDB, ! Name
  19.9,                                   ! Maximum Dry-Bulb Temperature {C}
  7.2,                                    ! Daily Dry-Bulb Temperature Range {deltaC}
  42300,                                  ! Humidity Indicating Conditions at Maximum Dry-Bulb {BasedOnField A3}
  100977,                                 ! Barometric Pressure {Pa}
  4.1,                                    ! Wind Speed {m/s}
  180,                                    ! Wind Direction {deg}
  0,                                      ! Sky Clearness
  0,                                      ! Rain Indicator
  0,                                      ! Snow Indicator
  21,                                     ! Day of Month
  7,                                      ! Month
  SummerDesignDay,                        ! Day Type
  0,                                      ! Daylight Saving Time Indicator
  Enthalpy,                               ! Humidity Indicating Type
  ,                                       ! Humidity Indicating Day Schedule Name
  DefaultMultipliers,                     ! Dry-Bulb Temperature Range Modifier Type
  ,                                       ! Dry-Bulb Temperature Range Modifier Schedule Name
  ASHRAETau,                              ! Solar Model Indicator
  ,                                       ! Beam Solar Day Schedule Name
  ,                                       ! Diffuse Solar Day Schedule Name
  0.382,                                  ! ASHRAE Taub {dimensionless}
  2.243;                                  ! ASHRAE Taud {dimensionless}

OS:ComponentData,
  {40ae7cb0-7dee-4ebd-8a5e-1972d4dd0845}, ! Handle
  Component Data 1,                       ! Name
  {729ba087-cc78-4c9f-b919-226e3fdcfaa3}, ! UUID
  {626a3307-b113-4287-8ff5-823aba2182ad}, ! Version UUID
  1366305237,                             ! Creation Timestamp
  1366305237,                             ! Version Timestamp
  {a6248b4f-5759-4e2b-b8f2-b1779017bce4}; ! Name of Object 1

