
OS:Version,
  {2bf893ee-ea8f-40c9-8ab4-9686f13aa0c7}, ! Handle
  0.9.3;                                  ! Version Identifier

OS:SizingPeriod:DesignDay,
  {23e1f227-6b6d-484b-b59e-96d0fc634011}, ! Handle
  Carlsbad Cavern City Air Term Ann Clg 1% Condns WB=>MDB, ! Name
  30.2,                                   ! Maximum Dry-Bulb Temperature {C}
  14.5,                                   ! Daily Dry-Bulb Temperature Range {deltaC}
  21.5,                                   ! Humidity Indicating Conditions at Maximum Dry-Bulb {BasedOnField A3}
  90038,                                  ! Barometric Pressure {Pa}
  4.9,                                    ! Wind Speed {m/s}
  140,                                    ! Wind Direction {deg}
  0,                                      ! Sky Clearness
  0,                                      ! Rain Indicator
  0,                                      ! Snow Indicator
  21,                                     ! Day of Month
  7,                                      ! Month
  SummerDesignDay,                        ! Day Type
  0,                                      ! Daylight Saving Time Indicator
  Wetbulb,                                ! Humidity Indicating Type
  ,                                       ! Humidity Indicating Day Schedule Name
  DefaultMultipliers,                     ! Dry-Bulb Temperature Range Modifier Type
  ,                                       ! Dry-Bulb Temperature Range Modifier Schedule Name
  ASHRAETau,                              ! Solar Model Indicator
  ,                                       ! Beam Solar Day Schedule Name
  ,                                       ! Diffuse Solar Day Schedule Name
  0.494,                                  ! ASHRAE Taub {dimensionless}
  1.831;                                  ! ASHRAE Taud {dimensionless}

OS:ComponentData,
  {50e86477-7e2e-46a2-94c3-ba87cac830c1}, ! Handle
  Component Data 1,                       ! Name
  {a4b4666d-bcd4-401b-8e85-7738a413dee6}, ! UUID
  {53911446-d5de-4748-a489-2076eaa3f8e7}, ! Version UUID
  1366309375,                             ! Creation Timestamp
  1366309375,                             ! Version Timestamp
  {23e1f227-6b6d-484b-b59e-96d0fc634011}; ! Name of Object 1

