
OS:Version,
  {2f9d9a8d-b0f1-41c7-8b08-f1fd960be858}, ! Handle
  0.9.3;                                  ! Version Identifier

OS:SizingPeriod:DesignDay,
  {b6c2cbd0-8900-4507-84fc-0bafaa4b7ce0}, ! Handle
  Albuquerque Intl Arpt  Isis Ann Htg Wind 99% Condns WS=>MCDB, ! Name
  2.7,                                    ! Maximum Dry-Bulb Temperature {C}
  0,                                      ! Daily Dry-Bulb Temperature Range {deltaC}
  2.7,                                    ! Humidity Indicating Conditions at Maximum Dry-Bulb {BasedOnField A3}
  83328,                                  ! Barometric Pressure {Pa}
  12.5,                                   ! Wind Speed {m/s}
  0,                                      ! Wind Direction {deg}
  0,                                      ! Sky Clearness
  0,                                      ! Rain Indicator
  0,                                      ! Snow Indicator
  21,                                     ! Day of Month
  12,                                     ! Month
  WinterDesignDay,                        ! Day Type
  0,                                      ! Daylight Saving Time Indicator
  Wetbulb,                                ! Humidity Indicating Type
  ,                                       ! Humidity Indicating Day Schedule Name
  DefaultMultipliers,                     ! Dry-Bulb Temperature Range Modifier Type
  ,                                       ! Dry-Bulb Temperature Range Modifier Schedule Name
  ASHRAEClearSky;                         ! Solar Model Indicator

OS:ComponentData,
  {a188397b-f1ca-4eb4-a2bd-8553aa9f01cc}, ! Handle
  Component Data 1,                       ! Name
  {56419873-4d98-4c50-ae0b-16882dd8c01e}, ! UUID
  {b03e2af6-4b6d-481d-9385-13d4852f3594}, ! Version UUID
  1366309369,                             ! Creation Timestamp
  1366309369,                             ! Version Timestamp
  {b6c2cbd0-8900-4507-84fc-0bafaa4b7ce0}; ! Name of Object 1

