
OS:Version,
  {a970a05f-398a-4ec2-a1c6-431d6906be34}, ! Handle
  0.9.3;                                  ! Version Identifier

OS:SizingPeriod:DesignDay,
  {28f48b4b-034a-4042-9d7b-3484a3575fc3}, ! Handle
  Kirksville Regional Ap Ann Hum_n 99.6% Condns DP=>MCDB, ! Name
  -19.3,                                  ! Maximum Dry-Bulb Temperature {C}
  0,                                      ! Daily Dry-Bulb Temperature Range {deltaC}
  -24.5,                                  ! Humidity Indicating Conditions at Maximum Dry-Bulb {BasedOnField A3}
  97843,                                  ! Barometric Pressure {Pa}
  4.6,                                    ! Wind Speed {m/s}
  350,                                    ! Wind Direction {deg}
  0,                                      ! Sky Clearness
  0,                                      ! Rain Indicator
  0,                                      ! Snow Indicator
  21,                                     ! Day of Month
  1,                                      ! Month
  WinterDesignDay,                        ! Day Type
  0,                                      ! Daylight Saving Time Indicator
  Dewpoint,                               ! Humidity Indicating Type
  ,                                       ! Humidity Indicating Day Schedule Name
  DefaultMultipliers,                     ! Dry-Bulb Temperature Range Modifier Type
  ,                                       ! Dry-Bulb Temperature Range Modifier Schedule Name
  ASHRAEClearSky;                         ! Solar Model Indicator

OS:ComponentData,
  {f6fde4e1-c982-40a2-b903-55e73aa7685a}, ! Handle
  Component Data 1,                       ! Name
  {c105de5c-9ab9-4ba3-8d90-7d13a1039921}, ! UUID
  {0e08f377-06a8-4382-be2f-8f76daedb4d9}, ! Version UUID
  1366308537,                             ! Creation Timestamp
  1366308537,                             ! Version Timestamp
  {28f48b4b-034a-4042-9d7b-3484a3575fc3}; ! Name of Object 1

