
OS:Version,
  {13876437-e713-4fc4-b7ca-56797f3a9564}, ! Handle
  0.9.3;                                  ! Version Identifier

OS:SizingPeriod:DesignDay,
  {d668b162-f212-4764-bc14-ff56e31f68cf}, ! Handle
  Athens Ben Epps Ap Ann Htg Wind 99% Condns WS=>MCDB, ! Name
  5.1,                                    ! Maximum Dry-Bulb Temperature {C}
  0,                                      ! Daily Dry-Bulb Temperature Range {deltaC}
  5.1,                                    ! Humidity Indicating Conditions at Maximum Dry-Bulb {BasedOnField A3}
  98428,                                  ! Barometric Pressure {Pa}
  8.8,                                    ! Wind Speed {m/s}
  290,                                    ! Wind Direction {deg}
  0,                                      ! Sky Clearness
  0,                                      ! Rain Indicator
  0,                                      ! Snow Indicator
  21,                                     ! Day of Month
  1,                                      ! Month
  WinterDesignDay,                        ! Day Type
  0,                                      ! Daylight Saving Time Indicator
  Wetbulb,                                ! Humidity Indicating Type
  ,                                       ! Humidity Indicating Day Schedule Name
  DefaultMultipliers,                     ! Dry-Bulb Temperature Range Modifier Type
  ,                                       ! Dry-Bulb Temperature Range Modifier Schedule Name
  ASHRAEClearSky;                         ! Solar Model Indicator

OS:ComponentData,
  {c8ca194b-f143-4896-b654-dac6a2b68046}, ! Handle
  Component Data 1,                       ! Name
  {46ff1619-1e1e-4947-8edb-67781dae4509}, ! UUID
  {d238f093-d2c3-4829-988c-39f83d884ef9}, ! Version UUID
  1366306965,                             ! Creation Timestamp
  1366306965,                             ! Version Timestamp
  {d668b162-f212-4764-bc14-ff56e31f68cf}; ! Name of Object 1

