
OS:Version,
  {947b53bd-b561-4d18-826f-83c493bfbe1a}, ! Handle
  0.9.3;                                  ! Version Identifier

OS:SizingPeriod:DesignDay,
  {08421836-1db8-4ba6-af43-f0da3ddeb552}, ! Handle
  Fort Worth Meacham Ann Clg 1% Condns DB=>MWB, ! Name
  37.2,                                   ! Maximum Dry-Bulb Temperature {C}
  11.1,                                   ! Daily Dry-Bulb Temperature Range {deltaC}
  23.8,                                   ! Humidity Indicating Conditions at Maximum Dry-Bulb {BasedOnField A3}
  98839,                                  ! Barometric Pressure {Pa}
  4.6,                                    ! Wind Speed {m/s}
  160,                                    ! Wind Direction {deg}
  0,                                      ! Sky Clearness
  0,                                      ! Rain Indicator
  0,                                      ! Snow Indicator
  21,                                     ! Day of Month
  8,                                      ! Month
  SummerDesignDay,                        ! Day Type
  0,                                      ! Daylight Saving Time Indicator
  Wetbulb,                                ! Humidity Indicating Type
  ,                                       ! Humidity Indicating Day Schedule Name
  DefaultMultipliers,                     ! Dry-Bulb Temperature Range Modifier Type
  ,                                       ! Dry-Bulb Temperature Range Modifier Schedule Name
  ASHRAETau,                              ! Solar Model Indicator
  ,                                       ! Beam Solar Day Schedule Name
  ,                                       ! Diffuse Solar Day Schedule Name
  0.466,                                  ! ASHRAE Taub {dimensionless}
  2.06;                                   ! ASHRAE Taud {dimensionless}

OS:ComponentData,
  {fa48f53f-8bdf-4139-b78a-8dd1d6c8b25d}, ! Handle
  Component Data 1,                       ! Name
  {446fd861-b509-4ef0-84ff-321f0038afb4}, ! UUID
  {6bcaa34d-4265-45c3-b175-be91bf176ed9}, ! Version UUID
  1366310701,                             ! Creation Timestamp
  1366310701,                             ! Version Timestamp
  {08421836-1db8-4ba6-af43-f0da3ddeb552}; ! Name of Object 1

