
OS:Version,
  {8e48323a-1a01-4ccf-bee9-955c4282d409}, ! Handle
  0.9.3;                                  ! Version Identifier

OS:SizingPeriod:DesignDay,
  {b1d5dd9e-53c5-4293-aa44-3da483ff87a3}, ! Handle
  Kingsville Ann Clg .4% Condns DP=>MDB,  ! Name
  29.1,                                   ! Maximum Dry-Bulb Temperature {C}
  10.5,                                   ! Daily Dry-Bulb Temperature Range {deltaC}
  26.3,                                   ! Humidity Indicating Conditions at Maximum Dry-Bulb {BasedOnField A3}
  101121,                                 ! Barometric Pressure {Pa}
  5.4,                                    ! Wind Speed {m/s}
  130,                                    ! Wind Direction {deg}
  0,                                      ! Sky Clearness
  0,                                      ! Rain Indicator
  0,                                      ! Snow Indicator
  21,                                     ! Day of Month
  7,                                      ! Month
  SummerDesignDay,                        ! Day Type
  0,                                      ! Daylight Saving Time Indicator
  Dewpoint,                               ! Humidity Indicating Type
  ,                                       ! Humidity Indicating Day Schedule Name
  DefaultMultipliers,                     ! Dry-Bulb Temperature Range Modifier Type
  ,                                       ! Dry-Bulb Temperature Range Modifier Schedule Name
  ASHRAETau,                              ! Solar Model Indicator
  ,                                       ! Beam Solar Day Schedule Name
  ,                                       ! Diffuse Solar Day Schedule Name
  0.452,                                  ! ASHRAE Taub {dimensionless}
  2.153;                                  ! ASHRAE Taud {dimensionless}

OS:ComponentData,
  {f3a1ca38-a8fc-41ed-8eb3-4c331d20a5af}, ! Handle
  Component Data 1,                       ! Name
  {72f8a3c8-1aff-409d-98c2-0a230c50c7f9}, ! UUID
  {96e6504c-2ed8-43f8-b5ee-08983c36847d}, ! Version UUID
  1366310776,                             ! Creation Timestamp
  1366310776,                             ! Version Timestamp
  {b1d5dd9e-53c5-4293-aa44-3da483ff87a3}; ! Name of Object 1

