
OS:Version,
  {54b7bd10-4cbf-4708-8e8c-b017d225c9bf}, ! Handle
  0.9.3;                                  ! Version Identifier

OS:SizingPeriod:DesignDay,
  {154eac4f-4ae6-4982-8cff-77fedb808811}, ! Handle
  Barbers Point Nas Ann Htg Wind 99.6% Condns WS=>MCDB, ! Name
  23.6,                                   ! Maximum Dry-Bulb Temperature {C}
  0,                                      ! Daily Dry-Bulb Temperature Range {deltaC}
  23.6,                                   ! Humidity Indicating Conditions at Maximum Dry-Bulb {BasedOnField A3}
  101145,                                 ! Barometric Pressure {Pa}
  11.5,                                   ! Wind Speed {m/s}
  40,                                     ! Wind Direction {deg}
  0,                                      ! Sky Clearness
  0,                                      ! Rain Indicator
  0,                                      ! Snow Indicator
  21,                                     ! Day of Month
  1,                                      ! Month
  WinterDesignDay,                        ! Day Type
  0,                                      ! Daylight Saving Time Indicator
  Wetbulb,                                ! Humidity Indicating Type
  ,                                       ! Humidity Indicating Day Schedule Name
  DefaultMultipliers,                     ! Dry-Bulb Temperature Range Modifier Type
  ,                                       ! Dry-Bulb Temperature Range Modifier Schedule Name
  ASHRAEClearSky;                         ! Solar Model Indicator

OS:ComponentData,
  {b1e6d02a-1702-425a-a343-a6ff2ab39dd0}, ! Handle
  Component Data 1,                       ! Name
  {3080de55-a0eb-43b7-99f0-424ed10421d3}, ! UUID
  {99b8833b-cc96-4d2a-872e-7a1c99fae90b}, ! Version UUID
  1366307072,                             ! Creation Timestamp
  1366307072,                             ! Version Timestamp
  {154eac4f-4ae6-4982-8cff-77fedb808811}; ! Name of Object 1

