
OS:Version,
  {d7a0f7f1-7427-4336-8387-fc3af683d8ba}, ! Handle
  0.9.3;                                  ! Version Identifier

OS:SizingPeriod:DesignDay,
  {e5a74685-1ff4-4a1c-b4eb-6d0d0457a364}, ! Handle
  Idaho Falls Fanning Field Ann Clg .4% Condns Enth=>MDB, ! Name
  28.4,                                   ! Maximum Dry-Bulb Temperature {C}
  18.9,                                   ! Daily Dry-Bulb Temperature Range {deltaC}
  57200,                                  ! Humidity Indicating Conditions at Maximum Dry-Bulb {BasedOnField A3}
  85170,                                  ! Barometric Pressure {Pa}
  4.8,                                    ! Wind Speed {m/s}
  200,                                    ! Wind Direction {deg}
  0,                                      ! Sky Clearness
  0,                                      ! Rain Indicator
  0,                                      ! Snow Indicator
  21,                                     ! Day of Month
  7,                                      ! Month
  SummerDesignDay,                        ! Day Type
  0,                                      ! Daylight Saving Time Indicator
  Enthalpy,                               ! Humidity Indicating Type
  ,                                       ! Humidity Indicating Day Schedule Name
  DefaultMultipliers,                     ! Dry-Bulb Temperature Range Modifier Type
  ,                                       ! Dry-Bulb Temperature Range Modifier Schedule Name
  ASHRAETau,                              ! Solar Model Indicator
  ,                                       ! Beam Solar Day Schedule Name
  ,                                       ! Diffuse Solar Day Schedule Name
  0.398,                                  ! ASHRAE Taub {dimensionless}
  2.067;                                  ! ASHRAE Taud {dimensionless}

OS:ComponentData,
  {a599981b-d73d-42f6-afb8-73eac99ad71d}, ! Handle
  Component Data 1,                       ! Name
  {0272ef89-3e1b-4788-8f83-034f64cfcb70}, ! UUID
  {89af676f-f4a8-4771-9a13-9a0a3f1dbf7a}, ! Version UUID
  1366307286,                             ! Creation Timestamp
  1366307286,                             ! Version Timestamp
  {e5a74685-1ff4-4a1c-b4eb-6d0d0457a364}; ! Name of Object 1

