
OS:Version,
  {eeee28c2-ff25-439f-aa70-0e12c8eb1968}, ! Handle
  0.9.3;                                  ! Version Identifier

OS:SizingPeriod:DesignDay,
  {612b508e-1b25-482d-b01e-87867a121f24}, ! Handle
  Los Angeles Ann Clg 2% Condns DB=>MWB,  ! Name
  25.4,                                   ! Maximum Dry-Bulb Temperature {C}
  6,                                      ! Daily Dry-Bulb Temperature Range {deltaC}
  18.2,                                   ! Humidity Indicating Conditions at Maximum Dry-Bulb {BasedOnField A3}
  100941,                                 ! Barometric Pressure {Pa}
  4.1,                                    ! Wind Speed {m/s}
  250,                                    ! Wind Direction {deg}
  0,                                      ! Sky Clearness
  0,                                      ! Rain Indicator
  0,                                      ! Snow Indicator
  21,                                     ! Day of Month
  8,                                      ! Month
  SummerDesignDay,                        ! Day Type
  0,                                      ! Daylight Saving Time Indicator
  Wetbulb,                                ! Humidity Indicating Type
  ,                                       ! Humidity Indicating Day Schedule Name
  DefaultMultipliers,                     ! Dry-Bulb Temperature Range Modifier Type
  ,                                       ! Dry-Bulb Temperature Range Modifier Schedule Name
  ASHRAETau,                              ! Solar Model Indicator
  ,                                       ! Beam Solar Day Schedule Name
  ,                                       ! Diffuse Solar Day Schedule Name
  0.44,                                   ! ASHRAE Taub {dimensionless}
  2.108;                                  ! ASHRAE Taud {dimensionless}

OS:ComponentData,
  {4f9e789c-0dd4-4b4d-a0ec-899a789f2ad1}, ! Handle
  Component Data 1,                       ! Name
  {39f9778d-709a-4802-9c6e-ae4506803e35}, ! UUID
  {54e1a4a7-60c2-45c5-bf77-81064d822385}, ! Version UUID
  1366306481,                             ! Creation Timestamp
  1366306481,                             ! Version Timestamp
  {612b508e-1b25-482d-b01e-87867a121f24}; ! Name of Object 1

