
OS:Version,
  {ae6232bb-d323-44b7-8602-50b3638dbe23}, ! Handle
  0.9.3;                                  ! Version Identifier

OS:SizingPeriod:DesignDay,
  {ebc0c4a8-0678-4b17-a00c-0f4d1166746f}, ! Handle
  Fremont Muni Arpt Ann Htg 99.6% Condns DB, ! Name
  -18.9,                                  ! Maximum Dry-Bulb Temperature {C}
  0,                                      ! Daily Dry-Bulb Temperature Range {deltaC}
  -18.9,                                  ! Humidity Indicating Conditions at Maximum Dry-Bulb {BasedOnField A3}
  96854,                                  ! Barometric Pressure {Pa}
  3.6,                                    ! Wind Speed {m/s}
  310,                                    ! Wind Direction {deg}
  0,                                      ! Sky Clearness
  0,                                      ! Rain Indicator
  0,                                      ! Snow Indicator
  21,                                     ! Day of Month
  1,                                      ! Month
  WinterDesignDay,                        ! Day Type
  0,                                      ! Daylight Saving Time Indicator
  Wetbulb,                                ! Humidity Indicating Type
  ,                                       ! Humidity Indicating Day Schedule Name
  DefaultMultipliers,                     ! Dry-Bulb Temperature Range Modifier Type
  ,                                       ! Dry-Bulb Temperature Range Modifier Schedule Name
  ASHRAEClearSky;                         ! Solar Model Indicator

OS:ComponentData,
  {73514ad5-5792-4fb2-a0e1-654aa91112fb}, ! Handle
  Component Data 1,                       ! Name
  {27b0393a-4a2f-4501-8bf1-8ba8be24a801}, ! UUID
  {74ba7b23-d483-47aa-8f08-8c48bf2abbe8}, ! Version UUID
  1366309103,                             ! Creation Timestamp
  1366309103,                             ! Version Timestamp
  {ebc0c4a8-0678-4b17-a00c-0f4d1166746f}; ! Name of Object 1

