
OS:Version,
  {7e1e420b-6f89-4e33-82f8-5dfaf342167e}, ! Handle
  0.9.3;                                  ! Version Identifier

OS:SizingPeriod:DesignDay,
  {a7460cbe-8945-4e8a-9fd7-7da6f04ed285}, ! Handle
  Dallas Fort Worth Intl Ap Ann Htg 99% Condns DB, ! Name
  -3.4,                                   ! Maximum Dry-Bulb Temperature {C}
  0,                                      ! Daily Dry-Bulb Temperature Range {deltaC}
  -3.4,                                   ! Humidity Indicating Conditions at Maximum Dry-Bulb {BasedOnField A3}
  99288,                                  ! Barometric Pressure {Pa}
  5.9,                                    ! Wind Speed {m/s}
  340,                                    ! Wind Direction {deg}
  0,                                      ! Sky Clearness
  0,                                      ! Rain Indicator
  0,                                      ! Snow Indicator
  21,                                     ! Day of Month
  1,                                      ! Month
  WinterDesignDay,                        ! Day Type
  0,                                      ! Daylight Saving Time Indicator
  Wetbulb,                                ! Humidity Indicating Type
  ,                                       ! Humidity Indicating Day Schedule Name
  DefaultMultipliers,                     ! Dry-Bulb Temperature Range Modifier Type
  ,                                       ! Dry-Bulb Temperature Range Modifier Schedule Name
  ASHRAEClearSky;                         ! Solar Model Indicator

OS:ComponentData,
  {2b08a172-18c5-483c-9341-923412431af9}, ! Handle
  Component Data 1,                       ! Name
  {6dcc7399-27e2-4acb-a303-31a2137edd5c}, ! UUID
  {16a2b8b4-f0cd-466d-af26-47c52cb8edac}, ! Version UUID
  1366310655,                             ! Creation Timestamp
  1366310655,                             ! Version Timestamp
  {a7460cbe-8945-4e8a-9fd7-7da6f04ed285}; ! Name of Object 1

