
OS:Version,
  {1ab5010a-b792-4dbf-b55e-86cacc1372eb}, ! Handle
  0.9.3;                                  ! Version Identifier

OS:SizingPeriod:DesignDay,
  {39f622d3-70a0-45e0-a3a7-b9417a6b409a}, ! Handle
  Bettles Field Ann Clg 1% Condns DB=>MWB, ! Name
  24.4,                                   ! Maximum Dry-Bulb Temperature {C}
  10.6,                                   ! Daily Dry-Bulb Temperature Range {deltaC}
  14.8,                                   ! Humidity Indicating Conditions at Maximum Dry-Bulb {BasedOnField A3}
  98992,                                  ! Barometric Pressure {Pa}
  3.3,                                    ! Wind Speed {m/s}
  220,                                    ! Wind Direction {deg}
  0,                                      ! Sky Clearness
  0,                                      ! Rain Indicator
  0,                                      ! Snow Indicator
  21,                                     ! Day of Month
  7,                                      ! Month
  SummerDesignDay,                        ! Day Type
  0,                                      ! Daylight Saving Time Indicator
  Wetbulb,                                ! Humidity Indicating Type
  ,                                       ! Humidity Indicating Day Schedule Name
  DefaultMultipliers,                     ! Dry-Bulb Temperature Range Modifier Type
  ,                                       ! Dry-Bulb Temperature Range Modifier Schedule Name
  ASHRAETau,                              ! Solar Model Indicator
  ,                                       ! Beam Solar Day Schedule Name
  ,                                       ! Diffuse Solar Day Schedule Name
  0.389,                                  ! ASHRAE Taub {dimensionless}
  2.131;                                  ! ASHRAE Taud {dimensionless}

OS:ComponentData,
  {90f587ae-b78a-43b5-9304-79d75927185e}, ! Handle
  Component Data 1,                       ! Name
  {4d76453f-637d-423a-a710-bf091d8bd6a2}, ! UUID
  {703c13af-db05-47a8-b552-133c6809b46a}, ! Version UUID
  1366304767,                             ! Creation Timestamp
  1366304767,                             ! Version Timestamp
  {39f622d3-70a0-45e0-a3a7-b9417a6b409a}; ! Name of Object 1

