
OS:Version,
  {441c326c-db5a-4bff-ab38-aa81d67e0679}, ! Handle
  0.9.3;                                  ! Version Identifier

OS:SizingPeriod:DesignDay,
  {52934799-bbdf-4582-b797-cc5f1fd80cb0}, ! Handle
  Barrow W Post W Rogers Arpt Ann Htg 99% Condns DB, ! Name
  -37.6,                                  ! Maximum Dry-Bulb Temperature {C}
  0,                                      ! Daily Dry-Bulb Temperature Range {deltaC}
  -37.6,                                  ! Humidity Indicating Conditions at Maximum Dry-Bulb {BasedOnField A3}
  101205,                                 ! Barometric Pressure {Pa}
  3.5,                                    ! Wind Speed {m/s}
  230,                                    ! Wind Direction {deg}
  0,                                      ! Sky Clearness
  0,                                      ! Rain Indicator
  0,                                      ! Snow Indicator
  21,                                     ! Day of Month
  2,                                      ! Month
  WinterDesignDay,                        ! Day Type
  0,                                      ! Daylight Saving Time Indicator
  Wetbulb,                                ! Humidity Indicating Type
  ,                                       ! Humidity Indicating Day Schedule Name
  DefaultMultipliers,                     ! Dry-Bulb Temperature Range Modifier Type
  ,                                       ! Dry-Bulb Temperature Range Modifier Schedule Name
  ASHRAEClearSky;                         ! Solar Model Indicator

OS:ComponentData,
  {fe833838-9cf3-4b04-a1c4-a7c9102fa6c0}, ! Handle
  Component Data 1,                       ! Name
  {3b22dd4c-d452-4a7f-bd06-a09849e307e7}, ! UUID
  {969bb01a-6d79-4bf9-ad43-d0afffddc302}, ! Version UUID
  1366304735,                             ! Creation Timestamp
  1366304735,                             ! Version Timestamp
  {52934799-bbdf-4582-b797-cc5f1fd80cb0}; ! Name of Object 1

