
OS:Version,
  {2a7e3f00-f00e-483a-a121-62adb007fd17}, ! Handle
  0.9.3;                                  ! Version Identifier

OS:SizingPeriod:DesignDay,
  {a7492113-ed53-497c-a3bd-fded4551a352}, ! Handle
  Baton Rouge Ann Clg 2% Condns Enth=>MDB, ! Name
  30.6,                                   ! Maximum Dry-Bulb Temperature {C}
  9.4,                                    ! Daily Dry-Bulb Temperature Range {deltaC}
  80400,                                  ! Humidity Indicating Conditions at Maximum Dry-Bulb {BasedOnField A3}
  101073,                                 ! Barometric Pressure {Pa}
  3.3,                                    ! Wind Speed {m/s}
  260,                                    ! Wind Direction {deg}
  0,                                      ! Sky Clearness
  0,                                      ! Rain Indicator
  0,                                      ! Snow Indicator
  21,                                     ! Day of Month
  7,                                      ! Month
  SummerDesignDay,                        ! Day Type
  0,                                      ! Daylight Saving Time Indicator
  Enthalpy,                               ! Humidity Indicating Type
  ,                                       ! Humidity Indicating Day Schedule Name
  DefaultMultipliers,                     ! Dry-Bulb Temperature Range Modifier Type
  ,                                       ! Dry-Bulb Temperature Range Modifier Schedule Name
  ASHRAETau,                              ! Solar Model Indicator
  ,                                       ! Beam Solar Day Schedule Name
  ,                                       ! Diffuse Solar Day Schedule Name
  0.542,                                  ! ASHRAE Taub {dimensionless}
  1.845;                                  ! ASHRAE Taud {dimensionless}

OS:ComponentData,
  {bb626093-c67c-4d3a-ad37-8f7edb72f9f0}, ! Handle
  Component Data 1,                       ! Name
  {e21ce41f-66f2-4fd3-8479-7f22ff26abf1}, ! UUID
  {691b9e52-5548-4a64-9759-715217f9691f}, ! Version UUID
  1366307705,                             ! Creation Timestamp
  1366307705,                             ! Version Timestamp
  {a7492113-ed53-497c-a3bd-fded4551a352}; ! Name of Object 1

