
OS:Version,
  {ca3302ce-2188-48d0-a2f9-b6830db53846}, ! Handle
  0.9.3;                                  ! Version Identifier

OS:SizingPeriod:DesignDay,
  {9f412184-df9e-4e05-96af-357a1f82d7a2}, ! Handle
  DAGGETT Ann Htg 99.6% Condns DB,        ! Name
  -1.7,                                   ! Maximum Dry-Bulb Temperature {C}
  0,                                      ! Daily Dry-Bulb Temperature Range {deltaC}
  -1.7,                                   ! Humidity Indicating Conditions at Maximum Dry-Bulb {BasedOnField A3}
  94458,                                  ! Barometric Pressure {Pa}
  2.8,                                    ! Wind Speed {m/s}
  280,                                    ! Wind Direction {deg}
  0,                                      ! Sky Clearness
  0,                                      ! Rain Indicator
  0,                                      ! Snow Indicator
  21,                                     ! Day of Month
  12,                                     ! Month
  WinterDesignDay,                        ! Day Type
  0,                                      ! Daylight Saving Time Indicator
  Wetbulb,                                ! Humidity Indicating Type
  ,                                       ! Humidity Indicating Day Schedule Name
  DefaultMultipliers,                     ! Dry-Bulb Temperature Range Modifier Type
  ,                                       ! Dry-Bulb Temperature Range Modifier Schedule Name
  ASHRAEClearSky;                         ! Solar Model Indicator

OS:ComponentData,
  {2fcb9cfa-d8fd-4ce2-a92e-158f8f215a1b}, ! Handle
  Component Data 1,                       ! Name
  {3f17d7a3-e285-4634-9c92-648b13413e38}, ! UUID
  {3f5845f4-c9cd-467f-97eb-5aaa02ab1b26}, ! Version UUID
  1366306370,                             ! Creation Timestamp
  1366306370,                             ! Version Timestamp
  {9f412184-df9e-4e05-96af-357a1f82d7a2}; ! Name of Object 1

