
OS:Version,
  {2e41db06-5a04-4797-a426-f0d763519c06}, ! Handle
  0.9.3;                                  ! Version Identifier

OS:SizingPeriod:DesignDay,
  {32a565df-70d4-466c-95fa-fe65e7353e43}, ! Handle
  Columbia Ann Htg 99.6% Condns DB,       ! Name
  -5.5,                                   ! Maximum Dry-Bulb Temperature {C}
  0,                                      ! Daily Dry-Bulb Temperature Range {deltaC}
  -5.5,                                   ! Humidity Indicating Conditions at Maximum Dry-Bulb {BasedOnField A3}
  100499,                                 ! Barometric Pressure {Pa}
  1.9,                                    ! Wind Speed {m/s}
  270,                                    ! Wind Direction {deg}
  0,                                      ! Sky Clearness
  0,                                      ! Rain Indicator
  0,                                      ! Snow Indicator
  21,                                     ! Day of Month
  1,                                      ! Month
  WinterDesignDay,                        ! Day Type
  0,                                      ! Daylight Saving Time Indicator
  Wetbulb,                                ! Humidity Indicating Type
  ,                                       ! Humidity Indicating Day Schedule Name
  DefaultMultipliers,                     ! Dry-Bulb Temperature Range Modifier Type
  ,                                       ! Dry-Bulb Temperature Range Modifier Schedule Name
  ASHRAEClearSky;                         ! Solar Model Indicator

OS:ComponentData,
  {7bec54e7-40d4-4660-9ebb-5f37ada15614}, ! Handle
  Component Data 1,                       ! Name
  {07b7fa25-8e2a-4219-a53a-76e710d8979a}, ! UUID
  {e54cc83d-dc11-4594-bf52-13dbe093d1a2}, ! Version UUID
  1366310343,                             ! Creation Timestamp
  1366310343,                             ! Version Timestamp
  {32a565df-70d4-466c-95fa-fe65e7353e43}; ! Name of Object 1

