
OS:Version,
  {674f92a7-6405-47f1-be31-cd9cc937de26}, ! Handle
  0.9.3;                                  ! Version Identifier

OS:SizingPeriod:DesignDay,
  {e0977a3e-1cb7-48a5-9e0d-266f1f4f6bf2}, ! Handle
  BILLINGS Ann Clg 2% Condns WB=>MDB,     ! Name
  28.2,                                   ! Maximum Dry-Bulb Temperature {C}
  14.5,                                   ! Daily Dry-Bulb Temperature Range {deltaC}
  17.3,                                   ! Humidity Indicating Conditions at Maximum Dry-Bulb {BasedOnField A3}
  88919,                                  ! Barometric Pressure {Pa}
  4.2,                                    ! Wind Speed {m/s}
  50,                                     ! Wind Direction {deg}
  0,                                      ! Sky Clearness
  0,                                      ! Rain Indicator
  0,                                      ! Snow Indicator
  21,                                     ! Day of Month
  7,                                      ! Month
  SummerDesignDay,                        ! Day Type
  0,                                      ! Daylight Saving Time Indicator
  Wetbulb,                                ! Humidity Indicating Type
  ,                                       ! Humidity Indicating Day Schedule Name
  DefaultMultipliers,                     ! Dry-Bulb Temperature Range Modifier Type
  ,                                       ! Dry-Bulb Temperature Range Modifier Schedule Name
  ASHRAETau,                              ! Solar Model Indicator
  ,                                       ! Beam Solar Day Schedule Name
  ,                                       ! Diffuse Solar Day Schedule Name
  0.405,                                  ! ASHRAE Taub {dimensionless}
  2.084;                                  ! ASHRAE Taud {dimensionless}

OS:ComponentData,
  {d0c073c5-758c-499f-b186-20da1f79a4e3}, ! Handle
  Component Data 1,                       ! Name
  {cf87b3db-020c-4143-b748-7f53a6c3bca4}, ! UUID
  {59f961b3-be1e-4929-8983-3525fc133158}, ! Version UUID
  1366308712,                             ! Creation Timestamp
  1366308712,                             ! Version Timestamp
  {e0977a3e-1cb7-48a5-9e0d-266f1f4f6bf2}; ! Name of Object 1

