
OS:Version,
  {e778f4ef-32d7-4411-b15a-94144ef4cc2a}, ! Handle
  0.9.3;                                  ! Version Identifier

OS:SizingPeriod:DesignDay,
  {48add984-8007-4367-bc88-6af46ddaa2fc}, ! Handle
  Asheville Regional Arpt Ann Clg 2% Condns WB=>MDB, ! Name
  26.7,                                   ! Maximum Dry-Bulb Temperature {C}
  10.7,                                   ! Daily Dry-Bulb Temperature Range {deltaC}
  22.2,                                   ! Humidity Indicating Conditions at Maximum Dry-Bulb {BasedOnField A3}
  93734,                                  ! Barometric Pressure {Pa}
  3.8,                                    ! Wind Speed {m/s}
  340,                                    ! Wind Direction {deg}
  0,                                      ! Sky Clearness
  0,                                      ! Rain Indicator
  0,                                      ! Snow Indicator
  21,                                     ! Day of Month
  7,                                      ! Month
  SummerDesignDay,                        ! Day Type
  0,                                      ! Daylight Saving Time Indicator
  Wetbulb,                                ! Humidity Indicating Type
  ,                                       ! Humidity Indicating Day Schedule Name
  DefaultMultipliers,                     ! Dry-Bulb Temperature Range Modifier Type
  ,                                       ! Dry-Bulb Temperature Range Modifier Schedule Name
  ASHRAETau,                              ! Solar Model Indicator
  ,                                       ! Beam Solar Day Schedule Name
  ,                                       ! Diffuse Solar Day Schedule Name
  0.517,                                  ! ASHRAE Taub {dimensionless}
  1.849;                                  ! ASHRAE Taud {dimensionless}

OS:ComponentData,
  {48f51672-74a3-473a-bb63-b6844f09505c}, ! Handle
  Component Data 1,                       ! Name
  {d4699119-5edd-4f92-93c6-d15f8fa6c166}, ! UUID
  {a9109c39-bf09-470e-9646-24a8a4e00127}, ! Version UUID
  1366308869,                             ! Creation Timestamp
  1366308869,                             ! Version Timestamp
  {48add984-8007-4367-bc88-6af46ddaa2fc}; ! Name of Object 1

