
OS:Version,
  {60183036-2196-46b6-b065-c017497ee807}, ! Handle
  0.9.3;                                  ! Version Identifier

OS:SizingPeriod:DesignDay,
  {a0d398a4-3c58-43c6-bb10-a5349adf1fdf}, ! Handle
  Fresno Yosemite Intl Ap Ann Clg 1% Condns WB=>MDB, ! Name
  35.5,                                   ! Maximum Dry-Bulb Temperature {C}
  16.4,                                   ! Daily Dry-Bulb Temperature Range {deltaC}
  22.3,                                   ! Humidity Indicating Conditions at Maximum Dry-Bulb {BasedOnField A3}
  100106,                                 ! Barometric Pressure {Pa}
  3.7,                                    ! Wind Speed {m/s}
  300,                                    ! Wind Direction {deg}
  0,                                      ! Sky Clearness
  0,                                      ! Rain Indicator
  0,                                      ! Snow Indicator
  21,                                     ! Day of Month
  7,                                      ! Month
  SummerDesignDay,                        ! Day Type
  0,                                      ! Daylight Saving Time Indicator
  Wetbulb,                                ! Humidity Indicating Type
  ,                                       ! Humidity Indicating Day Schedule Name
  DefaultMultipliers,                     ! Dry-Bulb Temperature Range Modifier Type
  ,                                       ! Dry-Bulb Temperature Range Modifier Schedule Name
  ASHRAETau,                              ! Solar Model Indicator
  ,                                       ! Beam Solar Day Schedule Name
  ,                                       ! Diffuse Solar Day Schedule Name
  0.428,                                  ! ASHRAE Taub {dimensionless}
  2.152;                                  ! ASHRAE Taud {dimensionless}

