
OS:Version,
  {38c00ff3-2e61-4d66-a0a1-d59719aa0547}, ! Handle
  0.9.3;                                  ! Version Identifier

OS:SizingPeriod:DesignDay,
  {66ad6910-09c3-4f81-becd-9785b7651d42}, ! Handle
  Crescent City Faa Ai Ann Clg .4% Condns WB=>MDB, ! Name
  18.6,                                   ! Maximum Dry-Bulb Temperature {C}
  5.7,                                    ! Daily Dry-Bulb Temperature Range {deltaC}
  16.1,                                   ! Humidity Indicating Conditions at Maximum Dry-Bulb {BasedOnField A3}
  101121,                                 ! Barometric Pressure {Pa}
  3.9,                                    ! Wind Speed {m/s}
  310,                                    ! Wind Direction {deg}
  0,                                      ! Sky Clearness
  0,                                      ! Rain Indicator
  0,                                      ! Snow Indicator
  21,                                     ! Day of Month
  8,                                      ! Month
  SummerDesignDay,                        ! Day Type
  0,                                      ! Daylight Saving Time Indicator
  Wetbulb,                                ! Humidity Indicating Type
  ,                                       ! Humidity Indicating Day Schedule Name
  DefaultMultipliers,                     ! Dry-Bulb Temperature Range Modifier Type
  ,                                       ! Dry-Bulb Temperature Range Modifier Schedule Name
  ASHRAETau,                              ! Solar Model Indicator
  ,                                       ! Beam Solar Day Schedule Name
  ,                                       ! Diffuse Solar Day Schedule Name
  0.362,                                  ! ASHRAE Taub {dimensionless}
  2.529;                                  ! ASHRAE Taud {dimensionless}

OS:ComponentData,
  {5983b4cb-a9da-418f-9260-338369151299}, ! Handle
  Component Data 1,                       ! Name
  {0a6cdeff-6ccb-472d-9d59-341c43ac11d0}, ! UUID
  {2261bbf9-d7e4-4a09-9646-323d42b9adc3}, ! Version UUID
  1366306418,                             ! Creation Timestamp
  1366306418,                             ! Version Timestamp
  {66ad6910-09c3-4f81-becd-9785b7651d42}; ! Name of Object 1

