
OS:Version,
  {d3fcfd4c-c8fe-420c-9339-9ead2f4a5eaf}, ! Handle
  0.9.3;                                  ! Version Identifier

OS:SizingPeriod:DesignDay,
  {057dffe3-7977-411a-83d2-438bf1da298a}, ! Handle
  Great Bend  Awos Ann Clg 2% Condns DB=>MWB, ! Name
  34,                                     ! Maximum Dry-Bulb Temperature {C}
  13.2,                                   ! Daily Dry-Bulb Temperature Range {deltaC}
  21.6,                                   ! Humidity Indicating Conditions at Maximum Dry-Bulb {BasedOnField A3}
  94605,                                  ! Barometric Pressure {Pa}
  7.4,                                    ! Wind Speed {m/s}
  190,                                    ! Wind Direction {deg}
  0,                                      ! Sky Clearness
  0,                                      ! Rain Indicator
  0,                                      ! Snow Indicator
  21,                                     ! Day of Month
  7,                                      ! Month
  SummerDesignDay,                        ! Day Type
  0,                                      ! Daylight Saving Time Indicator
  Wetbulb,                                ! Humidity Indicating Type
  ,                                       ! Humidity Indicating Day Schedule Name
  DefaultMultipliers,                     ! Dry-Bulb Temperature Range Modifier Type
  ,                                       ! Dry-Bulb Temperature Range Modifier Schedule Name
  ASHRAETau,                              ! Solar Model Indicator
  ,                                       ! Beam Solar Day Schedule Name
  ,                                       ! Diffuse Solar Day Schedule Name
  0.423,                                  ! ASHRAE Taub {dimensionless}
  2.152;                                  ! ASHRAE Taud {dimensionless}

OS:ComponentData,
  {f2ce78e8-ad1f-410c-9e1b-3bf4fbb0e3f3}, ! Handle
  Component Data 1,                       ! Name
  {e4d127ab-a9e7-4fad-b347-4500d1b53098}, ! UUID
  {23c31754-5091-4e71-bb64-ae23f75d2b3f}, ! Version UUID
  1366307541,                             ! Creation Timestamp
  1366307541,                             ! Version Timestamp
  {057dffe3-7977-411a-83d2-438bf1da298a}; ! Name of Object 1

