
OS:Version,
  {e71e4c1c-e5a2-49c9-9b5f-06d233e5346c}, ! Handle
  0.9.3;                                  ! Version Identifier

OS:SizingPeriod:DesignDay,
  {2fba0423-e317-4432-acfb-019867a23e8e}, ! Handle
  Fair Field Ann Clg 1% Condns Enth=>MDB, ! Name
  31.8,                                   ! Maximum Dry-Bulb Temperature {C}
  11,                                     ! Daily Dry-Bulb Temperature Range {deltaC}
  84300,                                  ! Humidity Indicating Conditions at Maximum Dry-Bulb {BasedOnField A3}
  98428,                                  ! Barometric Pressure {Pa}
  4.1,                                    ! Wind Speed {m/s}
  200,                                    ! Wind Direction {deg}
  0,                                      ! Sky Clearness
  0,                                      ! Rain Indicator
  0,                                      ! Snow Indicator
  21,                                     ! Day of Month
  7,                                      ! Month
  SummerDesignDay,                        ! Day Type
  0,                                      ! Daylight Saving Time Indicator
  Enthalpy,                               ! Humidity Indicating Type
  ,                                       ! Humidity Indicating Day Schedule Name
  DefaultMultipliers,                     ! Dry-Bulb Temperature Range Modifier Type
  ,                                       ! Dry-Bulb Temperature Range Modifier Schedule Name
  ASHRAETau,                              ! Solar Model Indicator
  ,                                       ! Beam Solar Day Schedule Name
  ,                                       ! Diffuse Solar Day Schedule Name
  0.444,                                  ! ASHRAE Taub {dimensionless}
  2.09;                                   ! ASHRAE Taud {dimensionless}

OS:ComponentData,
  {7e0af795-5207-4304-92dd-cabfb4a1522c}, ! Handle
  Component Data 1,                       ! Name
  {59a02ebc-f308-49c0-8572-b9a644944f7b}, ! UUID
  {cc715716-f52c-4b20-98ec-b7a2a4a5064b}, ! Version UUID
  1366307194,                             ! Creation Timestamp
  1366307194,                             ! Version Timestamp
  {2fba0423-e317-4432-acfb-019867a23e8e}; ! Name of Object 1

