
OS:Version,
  {57e59877-b055-4307-837a-459f5e0cd653}, ! Handle
  0.9.3;                                  ! Version Identifier

OS:SizingPeriod:DesignDay,
  {de771d57-9543-4e4c-ab46-0579f39e210d}, ! Handle
  BUFFALO Ann Htg Wind 99.6% Condns WS=>MCDB, ! Name
  -2.3,                                   ! Maximum Dry-Bulb Temperature {C}
  0,                                      ! Daily Dry-Bulb Temperature Range {deltaC}
  -2.3,                                   ! Humidity Indicating Conditions at Maximum Dry-Bulb {BasedOnField A3}
  98769,                                  ! Barometric Pressure {Pa}
  15.7,                                   ! Wind Speed {m/s}
  270,                                    ! Wind Direction {deg}
  0,                                      ! Sky Clearness
  0,                                      ! Rain Indicator
  0,                                      ! Snow Indicator
  21,                                     ! Day of Month
  1,                                      ! Month
  WinterDesignDay,                        ! Day Type
  0,                                      ! Daylight Saving Time Indicator
  Wetbulb,                                ! Humidity Indicating Type
  ,                                       ! Humidity Indicating Day Schedule Name
  DefaultMultipliers,                     ! Dry-Bulb Temperature Range Modifier Type
  ,                                       ! Dry-Bulb Temperature Range Modifier Schedule Name
  ASHRAEClearSky;                         ! Solar Model Indicator

OS:ComponentData,
  {cfad20e9-c1db-4048-9460-473f6b12d2c1}, ! Handle
  Component Data 1,                       ! Name
  {d1bbcca4-61a4-4b0a-97b9-a4648deaeef6}, ! UUID
  {7e0f5fbc-7ade-4fb8-ad16-5520c81a79db}, ! Version UUID
  1366309611,                             ! Creation Timestamp
  1366309611,                             ! Version Timestamp
  {de771d57-9543-4e4c-ab46-0579f39e210d}; ! Name of Object 1

