
OS:Version,
  {09d5e2f3-9590-4cf5-8ae8-d5a2edd7ca31}, ! Handle
  0.9.3;                                  ! Version Identifier

OS:SizingPeriod:DesignDay,
  {9d404457-dc71-41aa-a8d8-cf1dcda5bb30}, ! Handle
  Lemoore Reeves Nas Ann Clg 1% Condns WB=>MDB, ! Name
  35.5,                                   ! Maximum Dry-Bulb Temperature {C}
  18.6,                                   ! Daily Dry-Bulb Temperature Range {deltaC}
  22.9,                                   ! Humidity Indicating Conditions at Maximum Dry-Bulb {BasedOnField A3}
  100451,                                 ! Barometric Pressure {Pa}
  2.8,                                    ! Wind Speed {m/s}
  0,                                      ! Wind Direction {deg}
  0,                                      ! Sky Clearness
  0,                                      ! Rain Indicator
  0,                                      ! Snow Indicator
  21,                                     ! Day of Month
  7,                                      ! Month
  SummerDesignDay,                        ! Day Type
  0,                                      ! Daylight Saving Time Indicator
  Wetbulb,                                ! Humidity Indicating Type
  ,                                       ! Humidity Indicating Day Schedule Name
  DefaultMultipliers,                     ! Dry-Bulb Temperature Range Modifier Type
  ,                                       ! Dry-Bulb Temperature Range Modifier Schedule Name
  ASHRAETau,                              ! Solar Model Indicator
  ,                                       ! Beam Solar Day Schedule Name
  ,                                       ! Diffuse Solar Day Schedule Name
  0.413,                                  ! ASHRAE Taub {dimensionless}
  2.187;                                  ! ASHRAE Taud {dimensionless}

OS:ComponentData,
  {768a27b6-9bc2-4185-a436-6438f64f9e60}, ! Handle
  Component Data 1,                       ! Name
  {dee17d89-31d5-4fcb-94b5-f79ba489cdfb}, ! UUID
  {fb1a7b5f-b5a8-44c9-b9bb-7a22e113eaa6}, ! Version UUID
  1366306461,                             ! Creation Timestamp
  1366306461,                             ! Version Timestamp
  {9d404457-dc71-41aa-a8d8-cf1dcda5bb30}; ! Name of Object 1

