
OS:Version,
  {6f23bde8-da0d-4e84-9df1-d3ef6430e211}, ! Handle
  0.9.3;                                  ! Version Identifier

OS:SizingPeriod:DesignDay,
  {501ec388-d726-4a18-952c-4edc30b63534}, ! Handle
  Berlin Municipal Ann Clg 1% Condns DP=>MDB, ! Name
  23.4,                                   ! Maximum Dry-Bulb Temperature {C}
  13.8,                                   ! Daily Dry-Bulb Temperature Range {deltaC}
  19,                                     ! Humidity Indicating Conditions at Maximum Dry-Bulb {BasedOnField A3}
  97156,                                  ! Barometric Pressure {Pa}
  3,                                      ! Wind Speed {m/s}
  290,                                    ! Wind Direction {deg}
  0,                                      ! Sky Clearness
  0,                                      ! Rain Indicator
  0,                                      ! Snow Indicator
  21,                                     ! Day of Month
  7,                                      ! Month
  SummerDesignDay,                        ! Day Type
  0,                                      ! Daylight Saving Time Indicator
  Dewpoint,                               ! Humidity Indicating Type
  ,                                       ! Humidity Indicating Day Schedule Name
  DefaultMultipliers,                     ! Dry-Bulb Temperature Range Modifier Type
  ,                                       ! Dry-Bulb Temperature Range Modifier Schedule Name
  ASHRAETau,                              ! Solar Model Indicator
  ,                                       ! Beam Solar Day Schedule Name
  ,                                       ! Diffuse Solar Day Schedule Name
  0.442,                                  ! ASHRAE Taub {dimensionless}
  2.043;                                  ! ASHRAE Taud {dimensionless}

OS:ComponentData,
  {745854cc-bfd6-420d-a5b0-7d4087bcd8be}, ! Handle
  Component Data 1,                       ! Name
  {98c01957-f308-4d6b-8c27-4421ce486a03}, ! UUID
  {cdf2c944-a1b4-4633-8981-87ad327264e0}, ! Version UUID
  1366309215,                             ! Creation Timestamp
  1366309215,                             ! Version Timestamp
  {501ec388-d726-4a18-952c-4edc30b63534}; ! Name of Object 1

