
OS:Version,
  {395f7825-7ab8-42cc-8d1f-4d1c0bc5d218}, ! Handle
  0.9.3;                                  ! Version Identifier

OS:SizingPeriod:DesignDay,
  {ccd2b6fe-ed32-4f87-a135-cd83788f2910}, ! Handle
  Eagle County Ap Ann Clg 1% Condns WB=>MDB, ! Name
  24.5,                                   ! Maximum Dry-Bulb Temperature {C}
  19,                                     ! Daily Dry-Bulb Temperature Range {deltaC}
  15.3,                                   ! Humidity Indicating Conditions at Maximum Dry-Bulb {BasedOnField A3}
  79693,                                  ! Barometric Pressure {Pa}
  4.9,                                    ! Wind Speed {m/s}
  240,                                    ! Wind Direction {deg}
  0,                                      ! Sky Clearness
  0,                                      ! Rain Indicator
  0,                                      ! Snow Indicator
  21,                                     ! Day of Month
  7,                                      ! Month
  SummerDesignDay,                        ! Day Type
  0,                                      ! Daylight Saving Time Indicator
  Wetbulb,                                ! Humidity Indicating Type
  ,                                       ! Humidity Indicating Day Schedule Name
  DefaultMultipliers,                     ! Dry-Bulb Temperature Range Modifier Type
  ,                                       ! Dry-Bulb Temperature Range Modifier Schedule Name
  ASHRAETau,                              ! Solar Model Indicator
  ,                                       ! Beam Solar Day Schedule Name
  ,                                       ! Diffuse Solar Day Schedule Name
  0.4,                                    ! ASHRAE Taub {dimensionless}
  2.165;                                  ! ASHRAE Taud {dimensionless}

OS:ComponentData,
  {8b4b544c-b9b9-407f-b6d9-42983343ff9c}, ! Handle
  Component Data 1,                       ! Name
  {1cdf0649-95c6-4af4-8a25-5c378581d23e}, ! UUID
  {6cab5957-7ad6-48f4-9215-d4c822dbe55d}, ! Version UUID
  1366306688,                             ! Creation Timestamp
  1366306688,                             ! Version Timestamp
  {ccd2b6fe-ed32-4f87-a135-cd83788f2910}; ! Name of Object 1

