
OS:Version,
  {197aa276-dac5-4e39-8d24-dce9b212fd60}, ! Handle
  0.9.3;                                  ! Version Identifier

OS:SizingPeriod:DesignDay,
  {02c8bd1d-6f51-443d-991d-668ca09583f4}, ! Handle
  Bristol Tri City Airport Ann Clg .4% Condns DP=>MDB, ! Name
  26.1,                                   ! Maximum Dry-Bulb Temperature {C}
  10.8,                                   ! Daily Dry-Bulb Temperature Range {deltaC}
  22.3,                                   ! Humidity Indicating Conditions at Maximum Dry-Bulb {BasedOnField A3}
  95954,                                  ! Barometric Pressure {Pa}
  3.2,                                    ! Wind Speed {m/s}
  250,                                    ! Wind Direction {deg}
  0,                                      ! Sky Clearness
  0,                                      ! Rain Indicator
  0,                                      ! Snow Indicator
  21,                                     ! Day of Month
  7,                                      ! Month
  SummerDesignDay,                        ! Day Type
  0,                                      ! Daylight Saving Time Indicator
  Dewpoint,                               ! Humidity Indicating Type
  ,                                       ! Humidity Indicating Day Schedule Name
  DefaultMultipliers,                     ! Dry-Bulb Temperature Range Modifier Type
  ,                                       ! Dry-Bulb Temperature Range Modifier Schedule Name
  ASHRAETau,                              ! Solar Model Indicator
  ,                                       ! Beam Solar Day Schedule Name
  ,                                       ! Diffuse Solar Day Schedule Name
  0.541,                                  ! ASHRAE Taub {dimensionless}
  1.782;                                  ! ASHRAE Taud {dimensionless}

OS:ComponentData,
  {065517a4-736f-461c-b6f3-e0c914a3d6be}, ! Handle
  Component Data 1,                       ! Name
  {c80a664f-86ba-491f-b4b0-5310338d989e}, ! UUID
  {d3fe41f8-ee94-4157-b1ae-0c00862cabec}, ! Version UUID
  1366310477,                             ! Creation Timestamp
  1366310477,                             ! Version Timestamp
  {02c8bd1d-6f51-443d-991d-668ca09583f4}; ! Name of Object 1

