
OS:Version,
  {9592f284-05a2-4f4a-a4d7-8fdbb62812cf}, ! Handle
  0.9.3;                                  ! Version Identifier

OS:SizingPeriod:DesignDay,
  {482c12d7-46d2-448a-9414-c0adda8d69a5}, ! Handle
  Farmington Four Corners Regl Ann Hum_n 99% Condns DP=>MCDB, ! Name
  -0.6,                                   ! Maximum Dry-Bulb Temperature {C}
  0,                                      ! Daily Dry-Bulb Temperature Range {deltaC}
  -16.3,                                  ! Humidity Indicating Conditions at Maximum Dry-Bulb {BasedOnField A3}
  82756,                                  ! Barometric Pressure {Pa}
  2.2,                                    ! Wind Speed {m/s}
  70,                                     ! Wind Direction {deg}
  0,                                      ! Sky Clearness
  0,                                      ! Rain Indicator
  0,                                      ! Snow Indicator
  21,                                     ! Day of Month
  12,                                     ! Month
  WinterDesignDay,                        ! Day Type
  0,                                      ! Daylight Saving Time Indicator
  Dewpoint,                               ! Humidity Indicating Type
  ,                                       ! Humidity Indicating Day Schedule Name
  DefaultMultipliers,                     ! Dry-Bulb Temperature Range Modifier Type
  ,                                       ! Dry-Bulb Temperature Range Modifier Schedule Name
  ASHRAEClearSky;                         ! Solar Model Indicator

OS:ComponentData,
  {003c3bb1-f6fe-40bf-8aaa-c03844e3de5a}, ! Handle
  Component Data 1,                       ! Name
  {7811bf2a-9d3e-4f45-aeeb-e24504c11f58}, ! UUID
  {77645c6a-ff9e-49a6-b37b-6c4492ae8ccf}, ! Version UUID
  1366309402,                             ! Creation Timestamp
  1366309402,                             ! Version Timestamp
  {482c12d7-46d2-448a-9414-c0adda8d69a5}; ! Name of Object 1

