
OS:Version,
  {a675795a-4145-4cee-9fc8-78a5f5ba4a41}, ! Handle
  0.9.3;                                  ! Version Identifier

OS:SizingPeriod:DesignDay,
  {5b5dde7c-fed0-423e-8711-2a860347529b}, ! Handle
  Caribou Municipal Arpt Ann Clg .4% Condns WB=>MDB, ! Name
  27,                                     ! Maximum Dry-Bulb Temperature {C}
  10.9,                                   ! Daily Dry-Bulb Temperature Range {deltaC}
  22.2,                                   ! Humidity Indicating Conditions at Maximum Dry-Bulb {BasedOnField A3}
  99063,                                  ! Barometric Pressure {Pa}
  4.3,                                    ! Wind Speed {m/s}
  250,                                    ! Wind Direction {deg}
  0,                                      ! Sky Clearness
  0,                                      ! Rain Indicator
  0,                                      ! Snow Indicator
  21,                                     ! Day of Month
  7,                                      ! Month
  SummerDesignDay,                        ! Day Type
  0,                                      ! Daylight Saving Time Indicator
  Wetbulb,                                ! Humidity Indicating Type
  ,                                       ! Humidity Indicating Day Schedule Name
  DefaultMultipliers,                     ! Dry-Bulb Temperature Range Modifier Type
  ,                                       ! Dry-Bulb Temperature Range Modifier Schedule Name
  ASHRAETau,                              ! Solar Model Indicator
  ,                                       ! Beam Solar Day Schedule Name
  ,                                       ! Diffuse Solar Day Schedule Name
  0.429,                                  ! ASHRAE Taub {dimensionless}
  2.106;                                  ! ASHRAE Taud {dimensionless}

OS:ComponentData,
  {b25e69e8-ea10-4ce8-87af-5c2a3ee3b705}, ! Handle
  Component Data 1,                       ! Name
  {e890a820-800e-4eed-a18e-c3757876765a}, ! UUID
  {9b6f34ea-40da-4cad-910c-0adbc06b5bd7}, ! Version UUID
  1366307894,                             ! Creation Timestamp
  1366307894,                             ! Version Timestamp
  {5b5dde7c-fed0-423e-8711-2a860347529b}; ! Name of Object 1

