
OS:Version,
  {d485ee2f-ef9d-4b96-9d7b-deb507ad4467}, ! Handle
  0.9.3;                                  ! Version Identifier

OS:SizingPeriod:DesignDay,
  {c97decd7-1ebd-4bda-afd0-0898c280cc13}, ! Handle
  Chicago Ohare Intl Ap Ann Clg 1% Condns WB=>MDB, ! Name
  29.6,                                   ! Maximum Dry-Bulb Temperature {C}
  10.5,                                   ! Daily Dry-Bulb Temperature Range {deltaC}
  24.5,                                   ! Humidity Indicating Conditions at Maximum Dry-Bulb {BasedOnField A3}
  98934,                                  ! Barometric Pressure {Pa}
  5.2,                                    ! Wind Speed {m/s}
  230,                                    ! Wind Direction {deg}
  0,                                      ! Sky Clearness
  0,                                      ! Rain Indicator
  0,                                      ! Snow Indicator
  21,                                     ! Day of Month
  7,                                      ! Month
  SummerDesignDay,                        ! Day Type
  0,                                      ! Daylight Saving Time Indicator
  Wetbulb,                                ! Humidity Indicating Type
  ,                                       ! Humidity Indicating Day Schedule Name
  DefaultMultipliers,                     ! Dry-Bulb Temperature Range Modifier Type
  ,                                       ! Dry-Bulb Temperature Range Modifier Schedule Name
  ASHRAETau,                              ! Solar Model Indicator
  ,                                       ! Beam Solar Day Schedule Name
  ,                                       ! Diffuse Solar Day Schedule Name
  0.455,                                  ! ASHRAE Taub {dimensionless}
  2.05;                                   ! ASHRAE Taud {dimensionless}

OS:ComponentData,
  {0adc5191-1ed6-463b-b2b1-e07848996911}, ! Handle
  Component Data 1,                       ! Name
  {03003343-744a-41e4-b361-9181e604f3f0}, ! UUID
  {2fd52b7b-b5b6-4243-999d-40614d939c0e}, ! Version UUID
  1366307351,                             ! Creation Timestamp
  1366307351,                             ! Version Timestamp
  {c97decd7-1ebd-4bda-afd0-0898c280cc13}; ! Name of Object 1

