
OS:Version,
  {e404c554-bbb6-4580-bde3-53d9f81d7efd}, ! Handle
  0.9.3;                                  ! Version Identifier

OS:SizingPeriod:DesignDay,
  {57432782-e351-493d-a9d7-bfa6df9bb9a0}, ! Handle
  Camp Mabry Ann Clg .4% Condns Enth=>MDB, ! Name
  31.8,                                   ! Maximum Dry-Bulb Temperature {C}
  11.7,                                   ! Daily Dry-Bulb Temperature Range {deltaC}
  80900,                                  ! Humidity Indicating Conditions at Maximum Dry-Bulb {BasedOnField A3}
  98969,                                  ! Barometric Pressure {Pa}
  3.7,                                    ! Wind Speed {m/s}
  160,                                    ! Wind Direction {deg}
  0,                                      ! Sky Clearness
  0,                                      ! Rain Indicator
  0,                                      ! Snow Indicator
  21,                                     ! Day of Month
  8,                                      ! Month
  SummerDesignDay,                        ! Day Type
  0,                                      ! Daylight Saving Time Indicator
  Enthalpy,                               ! Humidity Indicating Type
  ,                                       ! Humidity Indicating Day Schedule Name
  DefaultMultipliers,                     ! Dry-Bulb Temperature Range Modifier Type
  ,                                       ! Dry-Bulb Temperature Range Modifier Schedule Name
  ASHRAETau,                              ! Solar Model Indicator
  ,                                       ! Beam Solar Day Schedule Name
  ,                                       ! Diffuse Solar Day Schedule Name
  0.452,                                  ! ASHRAE Taub {dimensionless}
  2.127;                                  ! ASHRAE Taud {dimensionless}

OS:ComponentData,
  {19d1236f-3cd1-424a-aa2a-8a5afb943508}, ! Handle
  Component Data 1,                       ! Name
  {73a486c1-1cd6-4bb4-8d9d-44246e5e482a}, ! UUID
  {79023e6f-0ba0-4bf4-9846-0c983f530bb4}, ! Version UUID
  1366310579,                             ! Creation Timestamp
  1366310579,                             ! Version Timestamp
  {57432782-e351-493d-a9d7-bfa6df9bb9a0}; ! Name of Object 1

