
OS:Version,
  {ab420f8b-2c33-462a-885e-85ad4ef19677}, ! Handle
  0.9.3;                                  ! Version Identifier

OS:SizingPeriod:DesignDay,
  {85269184-9e2f-4728-9095-793ac09a3c9e}, ! Handle
  BALTIMORE Ann Htg 99.6% Condns DB,      ! Name
  -10.6,                                  ! Maximum Dry-Bulb Temperature {C}
  0,                                      ! Daily Dry-Bulb Temperature Range {deltaC}
  -10.6,                                  ! Humidity Indicating Conditions at Maximum Dry-Bulb {BasedOnField A3}
  100762,                                 ! Barometric Pressure {Pa}
  3.9,                                    ! Wind Speed {m/s}
  290,                                    ! Wind Direction {deg}
  0,                                      ! Sky Clearness
  0,                                      ! Rain Indicator
  0,                                      ! Snow Indicator
  21,                                     ! Day of Month
  1,                                      ! Month
  WinterDesignDay,                        ! Day Type
  0,                                      ! Daylight Saving Time Indicator
  Wetbulb,                                ! Humidity Indicating Type
  ,                                       ! Humidity Indicating Day Schedule Name
  DefaultMultipliers,                     ! Dry-Bulb Temperature Range Modifier Type
  ,                                       ! Dry-Bulb Temperature Range Modifier Schedule Name
  ASHRAEClearSky;                         ! Solar Model Indicator

OS:ComponentData,
  {ffea1592-ade6-4c71-a8bd-7e1f7d331729}, ! Handle
  Component Data 1,                       ! Name
  {9767604c-73ff-4b91-8e89-51ae86b22212}, ! UUID
  {11a7ace6-4743-46e7-88bf-b8683e541461}, ! Version UUID
  1366307844,                             ! Creation Timestamp
  1366307844,                             ! Version Timestamp
  {85269184-9e2f-4728-9095-793ac09a3c9e}; ! Name of Object 1

