
OS:Version,
  {b0c9701f-c603-4b84-b8bb-2555c308d93e}, ! Handle
  0.9.3;                                  ! Version Identifier

OS:SizingPeriod:DesignDay,
  {0f9af1d2-a9ee-424a-91ba-4c57dac8c2d8}, ! Handle
  Dutch Harbor Ann Clg .4% Condns WB=>MDB, ! Name
  17,                                     ! Maximum Dry-Bulb Temperature {C}
  4.2,                                    ! Daily Dry-Bulb Temperature Range {deltaC}
  14.3,                                   ! Humidity Indicating Conditions at Maximum Dry-Bulb {BasedOnField A3}
  101277,                                 ! Barometric Pressure {Pa}
  4.9,                                    ! Wind Speed {m/s}
  150,                                    ! Wind Direction {deg}
  0,                                      ! Sky Clearness
  0,                                      ! Rain Indicator
  0,                                      ! Snow Indicator
  21,                                     ! Day of Month
  8,                                      ! Month
  SummerDesignDay,                        ! Day Type
  0,                                      ! Daylight Saving Time Indicator
  Wetbulb,                                ! Humidity Indicating Type
  ,                                       ! Humidity Indicating Day Schedule Name
  DefaultMultipliers,                     ! Dry-Bulb Temperature Range Modifier Type
  ,                                       ! Dry-Bulb Temperature Range Modifier Schedule Name
  ASHRAETau,                              ! Solar Model Indicator
  ,                                       ! Beam Solar Day Schedule Name
  ,                                       ! Diffuse Solar Day Schedule Name
  0.39,                                   ! ASHRAE Taub {dimensionless}
  2.25;                                   ! ASHRAE Taud {dimensionless}

OS:ComponentData,
  {2208cdba-1f69-489c-a44b-c1df0c321b65}, ! Handle
  Component Data 1,                       ! Name
  {012f5e57-85d6-4bd3-a391-85544d9ea825}, ! UUID
  {5cd998dc-c4cc-4bde-abce-81b6e122d0bc}, ! Version UUID
  1366305603,                             ! Creation Timestamp
  1366305603,                             ! Version Timestamp
  {0f9af1d2-a9ee-424a-91ba-4c57dac8c2d8}; ! Name of Object 1

