
OS:Version,
  {5fd4773c-fc07-425a-bfd4-a6bf9109fe4c}, ! Handle
  0.9.3;                                  ! Version Identifier

OS:SizingPeriod:DesignDay,
  {14f45c99-abb7-493f-97a8-6dbf4507f815}, ! Handle
  Burlington Ann Clg 2% Condns DB=>MWB,   ! Name
  28,                                     ! Maximum Dry-Bulb Temperature {C}
  10.7,                                   ! Daily Dry-Bulb Temperature Range {deltaC}
  20.1,                                   ! Humidity Indicating Conditions at Maximum Dry-Bulb {BasedOnField A3}
  100082,                                 ! Barometric Pressure {Pa}
  4.5,                                    ! Wind Speed {m/s}
  170,                                    ! Wind Direction {deg}
  0,                                      ! Sky Clearness
  0,                                      ! Rain Indicator
  0,                                      ! Snow Indicator
  21,                                     ! Day of Month
  7,                                      ! Month
  SummerDesignDay,                        ! Day Type
  0,                                      ! Daylight Saving Time Indicator
  Wetbulb,                                ! Humidity Indicating Type
  ,                                       ! Humidity Indicating Day Schedule Name
  DefaultMultipliers,                     ! Dry-Bulb Temperature Range Modifier Type
  ,                                       ! Dry-Bulb Temperature Range Modifier Schedule Name
  ASHRAETau,                              ! Solar Model Indicator
  ,                                       ! Beam Solar Day Schedule Name
  ,                                       ! Diffuse Solar Day Schedule Name
  0.459,                                  ! ASHRAE Taub {dimensionless}
  2.002;                                  ! ASHRAE Taud {dimensionless}

OS:ComponentData,
  {7f536504-c9cf-4503-9a82-9a0ddcdf11e0}, ! Handle
  Component Data 1,                       ! Name
  {9eff7821-dfec-45f9-a3be-7ec5d7179fe5}, ! UUID
  {12677605-3260-441d-94a1-62455751d31f}, ! Version UUID
  1366311240,                             ! Creation Timestamp
  1366311240,                             ! Version Timestamp
  {14f45c99-abb7-493f-97a8-6dbf4507f815}; ! Name of Object 1

