
OS:Version,
  {ea1daeca-2020-4678-92d8-179b829ea489}, ! Handle
  0.9.3;                                  ! Version Identifier

OS:SizingPeriod:DesignDay,
  {327ae3f8-3d34-452e-bc42-4fbaaefb2c0c}, ! Handle
  Leesburg Godfrey Ann Clg 2% Condns DP=>MDB, ! Name
  27.3,                                   ! Maximum Dry-Bulb Temperature {C}
  11.8,                                   ! Daily Dry-Bulb Temperature Range {deltaC}
  22.9,                                   ! Humidity Indicating Conditions at Maximum Dry-Bulb {BasedOnField A3}
  99904,                                  ! Barometric Pressure {Pa}
  2.9,                                    ! Wind Speed {m/s}
  250,                                    ! Wind Direction {deg}
  0,                                      ! Sky Clearness
  0,                                      ! Rain Indicator
  0,                                      ! Snow Indicator
  21,                                     ! Day of Month
  7,                                      ! Month
  SummerDesignDay,                        ! Day Type
  0,                                      ! Daylight Saving Time Indicator
  Dewpoint,                               ! Humidity Indicating Type
  ,                                       ! Humidity Indicating Day Schedule Name
  DefaultMultipliers,                     ! Dry-Bulb Temperature Range Modifier Type
  ,                                       ! Dry-Bulb Temperature Range Modifier Schedule Name
  ASHRAETau,                              ! Solar Model Indicator
  ,                                       ! Beam Solar Day Schedule Name
  ,                                       ! Diffuse Solar Day Schedule Name
  0.537,                                  ! ASHRAE Taub {dimensionless}
  1.8;                                    ! ASHRAE Taud {dimensionless}

OS:ComponentData,
  {be8b2de6-3050-4768-af75-93f0b8aa4de5}, ! Handle
  Component Data 1,                       ! Name
  {3fe0a24e-17c8-4bf1-a944-e47f2b6f7345}, ! UUID
  {7d11ad93-4201-43f8-b3c0-49a3eb2eb996}, ! Version UUID
  1366311078,                             ! Creation Timestamp
  1366311078,                             ! Version Timestamp
  {327ae3f8-3d34-452e-bc42-4fbaaefb2c0c}; ! Name of Object 1

