
OS:Version,
  {be615da0-a053-4551-962e-f18ab7c7f932}, ! Handle
  0.9.3;                                  ! Version Identifier

OS:SizingPeriod:DesignDay,
  {b2fc7880-f2b7-4eb9-a604-88286acbd0be}, ! Handle
  Casper Ann Clg .4% Condns DB=>MWB,      ! Name
  34.3,                                   ! Maximum Dry-Bulb Temperature {C}
  18.1,                                   ! Daily Dry-Bulb Temperature Range {deltaC}
  15.5,                                   ! Humidity Indicating Conditions at Maximum Dry-Bulb {BasedOnField A3}
  83400,                                  ! Barometric Pressure {Pa}
  5.5,                                    ! Wind Speed {m/s}
  230,                                    ! Wind Direction {deg}
  0,                                      ! Sky Clearness
  0,                                      ! Rain Indicator
  0,                                      ! Snow Indicator
  21,                                     ! Day of Month
  7,                                      ! Month
  SummerDesignDay,                        ! Day Type
  0,                                      ! Daylight Saving Time Indicator
  Wetbulb,                                ! Humidity Indicating Type
  ,                                       ! Humidity Indicating Day Schedule Name
  DefaultMultipliers,                     ! Dry-Bulb Temperature Range Modifier Type
  ,                                       ! Dry-Bulb Temperature Range Modifier Schedule Name
  ASHRAETau,                              ! Solar Model Indicator
  ,                                       ! Beam Solar Day Schedule Name
  ,                                       ! Diffuse Solar Day Schedule Name
  0.411,                                  ! ASHRAE Taub {dimensionless}
  2.017;                                  ! ASHRAE Taud {dimensionless}

