
OS:Version,
  {b472a4ff-e69c-4b17-bb2c-843056cb35a0}, ! Handle
  0.9.3;                                  ! Version Identifier

OS:SizingPeriod:DesignDay,
  {ad214624-1ad7-4e25-9ede-d6e8e35b929d}, ! Handle
  Felts Fld Ann Clg 2% Condns WB=>MDB,    ! Name
  28.8,                                   ! Maximum Dry-Bulb Temperature {C}
  15.9,                                   ! Daily Dry-Bulb Temperature Range {deltaC}
  18,                                     ! Humidity Indicating Conditions at Maximum Dry-Bulb {BasedOnField A3}
  94208,                                  ! Barometric Pressure {Pa}
  3.5,                                    ! Wind Speed {m/s}
  220,                                    ! Wind Direction {deg}
  0,                                      ! Sky Clearness
  0,                                      ! Rain Indicator
  0,                                      ! Snow Indicator
  21,                                     ! Day of Month
  7,                                      ! Month
  SummerDesignDay,                        ! Day Type
  0,                                      ! Daylight Saving Time Indicator
  Wetbulb,                                ! Humidity Indicating Type
  ,                                       ! Humidity Indicating Day Schedule Name
  DefaultMultipliers,                     ! Dry-Bulb Temperature Range Modifier Type
  ,                                       ! Dry-Bulb Temperature Range Modifier Schedule Name
  ASHRAETau,                              ! Solar Model Indicator
  ,                                       ! Beam Solar Day Schedule Name
  ,                                       ! Diffuse Solar Day Schedule Name
  0.356,                                  ! ASHRAE Taub {dimensionless}
  2.398;                                  ! ASHRAE Taud {dimensionless}

OS:ComponentData,
  {44657822-b1b8-483d-b4f9-e0b7b976378d}, ! Handle
  Component Data 1,                       ! Name
  {720e2b45-dd4e-4750-8a88-2699fad5ae80}, ! UUID
  {89047911-9e9f-4abf-b3ab-4f0bfb69b508}, ! Version UUID
  1366311376,                             ! Creation Timestamp
  1366311376,                             ! Version Timestamp
  {ad214624-1ad7-4e25-9ede-d6e8e35b929d}; ! Name of Object 1

