
OS:Version,
  {48d45740-b876-46fb-9fd9-d8f71792a49e}, ! Handle
  0.9.3;                                  ! Version Identifier

OS:SizingPeriod:DesignDay,
  {0dad2843-bc99-4fd5-a69b-db53b8f3dd69}, ! Handle
  DODGE_CITY Ann Clg 1% Condns DP=>MDB,   ! Name
  25.9,                                   ! Maximum Dry-Bulb Temperature {C}
  13.9,                                   ! Daily Dry-Bulb Temperature Range {deltaC}
  20.6,                                   ! Humidity Indicating Conditions at Maximum Dry-Bulb {BasedOnField A3}
  92221,                                  ! Barometric Pressure {Pa}
  7.4,                                    ! Wind Speed {m/s}
  180,                                    ! Wind Direction {deg}
  0,                                      ! Sky Clearness
  0,                                      ! Rain Indicator
  0,                                      ! Snow Indicator
  21,                                     ! Day of Month
  7,                                      ! Month
  SummerDesignDay,                        ! Day Type
  0,                                      ! Daylight Saving Time Indicator
  Dewpoint,                               ! Humidity Indicating Type
  ,                                       ! Humidity Indicating Day Schedule Name
  DefaultMultipliers,                     ! Dry-Bulb Temperature Range Modifier Type
  ,                                       ! Dry-Bulb Temperature Range Modifier Schedule Name
  ASHRAETau,                              ! Solar Model Indicator
  ,                                       ! Beam Solar Day Schedule Name
  ,                                       ! Diffuse Solar Day Schedule Name
  0.419,                                  ! ASHRAE Taub {dimensionless}
  2.142;                                  ! ASHRAE Taud {dimensionless}

OS:ComponentData,
  {ca1a2d58-60db-486b-9dd6-64c2a0e9ad56}, ! Handle
  Component Data 1,                       ! Name
  {dfb53ce5-c67c-4404-938e-b7c364bf2e76}, ! UUID
  {995918f1-04dc-469c-858a-7681b742fe16}, ! Version UUID
  1366307506,                             ! Creation Timestamp
  1366307506,                             ! Version Timestamp
  {0dad2843-bc99-4fd5-a69b-db53b8f3dd69}; ! Name of Object 1

