
OS:Version,
  {166bdfa3-5ec6-4577-960a-410d6f0bad3e}, ! Handle
  0.9.3;                                  ! Version Identifier

OS:SizingPeriod:DesignDay,
  {c4b415e5-c601-4a42-ac83-2219c366586a}, ! Handle
  Boston Logan IntL Arpt Ann Clg 1% Condns WB=>MDB, ! Name
  28.6,                                   ! Maximum Dry-Bulb Temperature {C}
  8.4,                                    ! Daily Dry-Bulb Temperature Range {deltaC}
  23.7,                                   ! Humidity Indicating Conditions at Maximum Dry-Bulb {BasedOnField A3}
  101253,                                 ! Barometric Pressure {Pa}
  6.3,                                    ! Wind Speed {m/s}
  270,                                    ! Wind Direction {deg}
  0,                                      ! Sky Clearness
  0,                                      ! Rain Indicator
  0,                                      ! Snow Indicator
  21,                                     ! Day of Month
  7,                                      ! Month
  SummerDesignDay,                        ! Day Type
  0,                                      ! Daylight Saving Time Indicator
  Wetbulb,                                ! Humidity Indicating Type
  ,                                       ! Humidity Indicating Day Schedule Name
  DefaultMultipliers,                     ! Dry-Bulb Temperature Range Modifier Type
  ,                                       ! Dry-Bulb Temperature Range Modifier Schedule Name
  ASHRAETau,                              ! Solar Model Indicator
  ,                                       ! Beam Solar Day Schedule Name
  ,                                       ! Diffuse Solar Day Schedule Name
  0.488,                                  ! ASHRAE Taub {dimensionless}
  1.95;                                   ! ASHRAE Taud {dimensionless}

OS:ComponentData,
  {8f176204-19c5-4555-ae03-cb4b14fc641b}, ! Handle
  Component Data 1,                       ! Name
  {522e71e1-fb13-488e-83df-7265d762ffef}, ! UUID
  {5eaffefd-f927-46e2-b34c-f0ec93b16121}, ! Version UUID
  1366307793,                             ! Creation Timestamp
  1366307793,                             ! Version Timestamp
  {c4b415e5-c601-4a42-ac83-2219c366586a}; ! Name of Object 1

