
OS:Version,
  {47db87ae-7d76-45ef-a03a-adde0942af3d}, ! Handle
  0.9.3;                                  ! Version Identifier

OS:SizingPeriod:DesignDay,
  {462e74c1-1c57-4fe7-a6bb-515d6b460105}, ! Handle
  Hilo Ann Clg 2% Condns WB=>MDB,         ! Name
  27.2,                                   ! Maximum Dry-Bulb Temperature {C}
  7,                                      ! Daily Dry-Bulb Temperature Range {deltaC}
  24.1,                                   ! Humidity Indicating Conditions at Maximum Dry-Bulb {BasedOnField A3}
  101193,                                 ! Barometric Pressure {Pa}
  4.8,                                    ! Wind Speed {m/s}
  90,                                     ! Wind Direction {deg}
  0,                                      ! Sky Clearness
  0,                                      ! Rain Indicator
  0,                                      ! Snow Indicator
  21,                                     ! Day of Month
  8,                                      ! Month
  SummerDesignDay,                        ! Day Type
  0,                                      ! Daylight Saving Time Indicator
  Wetbulb,                                ! Humidity Indicating Type
  ,                                       ! Humidity Indicating Day Schedule Name
  DefaultMultipliers,                     ! Dry-Bulb Temperature Range Modifier Type
  ,                                       ! Dry-Bulb Temperature Range Modifier Schedule Name
  ASHRAETau,                              ! Solar Model Indicator
  ,                                       ! Beam Solar Day Schedule Name
  ,                                       ! Diffuse Solar Day Schedule Name
  0.411,                                  ! ASHRAE Taub {dimensionless}
  2.427;                                  ! ASHRAE Taud {dimensionless}

OS:ComponentData,
  {fa7b029b-ea27-4037-aa6d-bc87258875f0}, ! Handle
  Component Data 1,                       ! Name
  {ec630a08-d9c8-4708-844d-f9d7cd725962}, ! UUID
  {f0412ed6-42bb-4419-bc18-da0de17cc0cd}, ! Version UUID
  1366307081,                             ! Creation Timestamp
  1366307081,                             ! Version Timestamp
  {462e74c1-1c57-4fe7-a6bb-515d6b460105}; ! Name of Object 1

