
OS:Version,
  {d2eb29c9-67b8-470b-a3b5-6616e72a4c92}, ! Handle
  0.9.3;                                  ! Version Identifier

OS:SizingPeriod:DesignDay,
  {3cae9142-a280-4fa6-af83-337ca16a3931}, ! Handle
  Lebanon Municipal Ann Clg .4% Condns DP=>MDB, ! Name
  26.1,                                   ! Maximum Dry-Bulb Temperature {C}
  12.9,                                   ! Daily Dry-Bulb Temperature Range {deltaC}
  21.7,                                   ! Humidity Indicating Conditions at Maximum Dry-Bulb {BasedOnField A3}
  99158,                                  ! Barometric Pressure {Pa}
  4,                                      ! Wind Speed {m/s}
  220,                                    ! Wind Direction {deg}
  0,                                      ! Sky Clearness
  0,                                      ! Rain Indicator
  0,                                      ! Snow Indicator
  21,                                     ! Day of Month
  7,                                      ! Month
  SummerDesignDay,                        ! Day Type
  0,                                      ! Daylight Saving Time Indicator
  Dewpoint,                               ! Humidity Indicating Type
  ,                                       ! Humidity Indicating Day Schedule Name
  DefaultMultipliers,                     ! Dry-Bulb Temperature Range Modifier Type
  ,                                       ! Dry-Bulb Temperature Range Modifier Schedule Name
  ASHRAETau,                              ! Solar Model Indicator
  ,                                       ! Beam Solar Day Schedule Name
  ,                                       ! Diffuse Solar Day Schedule Name
  0.443,                                  ! ASHRAE Taub {dimensionless}
  2.066;                                  ! ASHRAE Taud {dimensionless}

OS:ComponentData,
  {b6899d56-c8a4-4163-98fd-f3149bd5fe2f}, ! Handle
  Component Data 1,                       ! Name
  {6ebb1558-60c8-4fcb-9461-b340821a08c8}, ! UUID
  {e327eeeb-3122-4fcd-9ddd-8656a97552fc}, ! Version UUID
  1366309258,                             ! Creation Timestamp
  1366309258,                             ! Version Timestamp
  {3cae9142-a280-4fa6-af83-337ca16a3931}; ! Name of Object 1

