
OS:Version,
  {a90f955b-b1e7-4bd9-b956-cec5e3610369}, ! Handle
  0.9.3;                                  ! Version Identifier

OS:SizingPeriod:DesignDay,
  {c0b5c42a-cf5b-4e47-9672-2e5fb8c26a8e}, ! Handle
  Kingsville/NAS Ann Clg 2% Condns DP=>MDB, ! Name
  28.9,                                   ! Maximum Dry-Bulb Temperature {C}
  10.5,                                   ! Daily Dry-Bulb Temperature Range {deltaC}
  25.4,                                   ! Humidity Indicating Conditions at Maximum Dry-Bulb {BasedOnField A3}
  101145,                                 ! Barometric Pressure {Pa}
  5.4,                                    ! Wind Speed {m/s}
  130,                                    ! Wind Direction {deg}
  0,                                      ! Sky Clearness
  0,                                      ! Rain Indicator
  0,                                      ! Snow Indicator
  21,                                     ! Day of Month
  7,                                      ! Month
  SummerDesignDay,                        ! Day Type
  0,                                      ! Daylight Saving Time Indicator
  Dewpoint,                               ! Humidity Indicating Type
  ,                                       ! Humidity Indicating Day Schedule Name
  DefaultMultipliers,                     ! Dry-Bulb Temperature Range Modifier Type
  ,                                       ! Dry-Bulb Temperature Range Modifier Schedule Name
  ASHRAETau,                              ! Solar Model Indicator
  ,                                       ! Beam Solar Day Schedule Name
  ,                                       ! Diffuse Solar Day Schedule Name
  0.452,                                  ! ASHRAE Taub {dimensionless}
  2.153;                                  ! ASHRAE Taud {dimensionless}

OS:ComponentData,
  {52eaf002-0617-48a8-8412-c8698a69780a}, ! Handle
  Component Data 1,                       ! Name
  {eeb6883b-28a8-431c-90b6-76b7f16fece3}, ! UUID
  {f2b8d36b-26e0-4426-9bf2-882b77bd81ff}, ! Version UUID
  1366310772,                             ! Creation Timestamp
  1366310772,                             ! Version Timestamp
  {c0b5c42a-cf5b-4e47-9672-2e5fb8c26a8e}; ! Name of Object 1

