
OS:Version,
  {48f2d204-287c-4a22-90f1-6c6eadcf4d32}, ! Handle
  0.9.3;                                  ! Version Identifier

OS:SizingPeriod:DesignDay,
  {d0d725d4-1f16-49ba-a6f1-a7ee642f4004}, ! Handle
  Charles City Ann Hum_n 99% Condns DP=>MCDB, ! Name
  -19.1,                                  ! Maximum Dry-Bulb Temperature {C}
  0,                                      ! Daily Dry-Bulb Temperature Range {deltaC}
  -23.2,                                  ! Humidity Indicating Conditions at Maximum Dry-Bulb {BasedOnField A3}
  97272,                                  ! Barometric Pressure {Pa}
  3.8,                                    ! Wind Speed {m/s}
  310,                                    ! Wind Direction {deg}
  0,                                      ! Sky Clearness
  0,                                      ! Rain Indicator
  0,                                      ! Snow Indicator
  21,                                     ! Day of Month
  1,                                      ! Month
  WinterDesignDay,                        ! Day Type
  0,                                      ! Daylight Saving Time Indicator
  Dewpoint,                               ! Humidity Indicating Type
  ,                                       ! Humidity Indicating Day Schedule Name
  DefaultMultipliers,                     ! Dry-Bulb Temperature Range Modifier Type
  ,                                       ! Dry-Bulb Temperature Range Modifier Schedule Name
  ASHRAEClearSky;                         ! Solar Model Indicator

OS:ComponentData,
  {0808035c-1ef9-47b0-bd1b-3289b50e7170}, ! Handle
  Component Data 1,                       ! Name
  {780f67c3-0418-4707-a8b4-c78195de9551}, ! UUID
  {bc951f71-612d-4c92-9618-bd9a94ae1e1d}, ! Version UUID
  1366307155,                             ! Creation Timestamp
  1366307155,                             ! Version Timestamp
  {d0d725d4-1f16-49ba-a6f1-a7ee642f4004}; ! Name of Object 1

