
OS:Version,
  {da24a905-f1ab-4e7b-8ce0-f57e0ef956ac}, ! Handle
  0.9.3;                                  ! Version Identifier

OS:SizingPeriod:DesignDay,
  {3a0c156b-a567-4309-a58f-f9ac6be33ea2}, ! Handle
  Fort Bragg Simmons Aaf Ann Htg Wind 99.6% Condns WS=>MCDB, ! Name
  8.2,                                    ! Maximum Dry-Bulb Temperature {C}
  0,                                      ! Daily Dry-Bulb Temperature Range {deltaC}
  8.2,                                    ! Humidity Indicating Conditions at Maximum Dry-Bulb {BasedOnField A3}
  100213,                                 ! Barometric Pressure {Pa}
  9.8,                                    ! Wind Speed {m/s}
  0,                                      ! Wind Direction {deg}
  0,                                      ! Sky Clearness
  0,                                      ! Rain Indicator
  0,                                      ! Snow Indicator
  21,                                     ! Day of Month
  1,                                      ! Month
  WinterDesignDay,                        ! Day Type
  0,                                      ! Daylight Saving Time Indicator
  Wetbulb,                                ! Humidity Indicating Type
  ,                                       ! Humidity Indicating Day Schedule Name
  DefaultMultipliers,                     ! Dry-Bulb Temperature Range Modifier Type
  ,                                       ! Dry-Bulb Temperature Range Modifier Schedule Name
  ASHRAEClearSky;                         ! Solar Model Indicator

OS:ComponentData,
  {8b5021bb-2c17-48c9-a43b-805cebdcf7fc}, ! Handle
  Component Data 1,                       ! Name
  {cd6dfd79-4219-430b-b4c4-ef64ddfbdb31}, ! UUID
  {0f41c582-d70b-4fda-8203-bb0f0c4cc5f0}, ! Version UUID
  1366308919,                             ! Creation Timestamp
  1366308919,                             ! Version Timestamp
  {3a0c156b-a567-4309-a58f-f9ac6be33ea2}; ! Name of Object 1

