
OS:Version,
  {f9281990-eec7-4b82-8920-ff88f370225c}, ! Handle
  0.9.3;                                  ! Version Identifier

OS:SizingPeriod:DesignDay,
  {54af959e-c005-49e6-abc8-8037c04d039c}, ! Handle
  BIG_DELTA Ann Clg .4% Condns WB=>MDB,   ! Name
  23.5,                                   ! Maximum Dry-Bulb Temperature {C}
  9.5,                                    ! Daily Dry-Bulb Temperature Range {deltaC}
  15.7,                                   ! Humidity Indicating Conditions at Maximum Dry-Bulb {BasedOnField A3}
  96750,                                  ! Barometric Pressure {Pa}
  3.3,                                    ! Wind Speed {m/s}
  310,                                    ! Wind Direction {deg}
  0,                                      ! Sky Clearness
  0,                                      ! Rain Indicator
  0,                                      ! Snow Indicator
  21,                                     ! Day of Month
  7,                                      ! Month
  SummerDesignDay,                        ! Day Type
  0,                                      ! Daylight Saving Time Indicator
  Wetbulb,                                ! Humidity Indicating Type
  ,                                       ! Humidity Indicating Day Schedule Name
  DefaultMultipliers,                     ! Dry-Bulb Temperature Range Modifier Type
  ,                                       ! Dry-Bulb Temperature Range Modifier Schedule Name
  ASHRAETau,                              ! Solar Model Indicator
  ,                                       ! Beam Solar Day Schedule Name
  ,                                       ! Diffuse Solar Day Schedule Name
  0.398,                                  ! ASHRAE Taub {dimensionless}
  2.083;                                  ! ASHRAE Taud {dimensionless}

OS:ComponentData,
  {cebb992d-d8a8-4f77-892d-63e0b9ec9024}, ! Handle
  Component Data 1,                       ! Name
  {9bba5c8e-9557-4413-843f-41226434cbc4}, ! UUID
  {bce61b98-2a13-40dc-bd70-aefefdd85b29}, ! Version UUID
  1366304783,                             ! Creation Timestamp
  1366304783,                             ! Version Timestamp
  {54af959e-c005-49e6-abc8-8037c04d039c}; ! Name of Object 1

