
OS:Version,
  {2fecc5a5-7d9a-43f9-8a19-c15b4fda8f01}, ! Handle
  0.9.3;                                  ! Version Identifier

OS:SizingPeriod:DesignDay,
  {d836dea7-dad5-4ade-afab-6cd40963152b}, ! Handle
  Cape Hatteras Nws Bldg Ann Hum_n 99.6% Condns DP=>MCDB, ! Name
  1.4,                                    ! Maximum Dry-Bulb Temperature {C}
  0,                                      ! Daily Dry-Bulb Temperature Range {deltaC}
  -12.2,                                  ! Humidity Indicating Conditions at Maximum Dry-Bulb {BasedOnField A3}
  101289,                                 ! Barometric Pressure {Pa}
  3.9,                                    ! Wind Speed {m/s}
  0,                                      ! Wind Direction {deg}
  0,                                      ! Sky Clearness
  0,                                      ! Rain Indicator
  0,                                      ! Snow Indicator
  21,                                     ! Day of Month
  1,                                      ! Month
  WinterDesignDay,                        ! Day Type
  0,                                      ! Daylight Saving Time Indicator
  Dewpoint,                               ! Humidity Indicating Type
  ,                                       ! Humidity Indicating Day Schedule Name
  DefaultMultipliers,                     ! Dry-Bulb Temperature Range Modifier Type
  ,                                       ! Dry-Bulb Temperature Range Modifier Schedule Name
  ASHRAEClearSky;                         ! Solar Model Indicator

OS:ComponentData,
  {c49d6b99-2cbc-49a0-9480-6e4171a7bcb1}, ! Handle
  Component Data 1,                       ! Name
  {2d4091e7-f4d9-4dad-bd53-cba694577219}, ! UUID
  {4868c7dd-1c32-4c74-859b-b7a719a8806a}, ! Version UUID
  1366308880,                             ! Creation Timestamp
  1366308880,                             ! Version Timestamp
  {d836dea7-dad5-4ade-afab-6cd40963152b}; ! Name of Object 1

