
OS:Version,
  {558a1afb-3574-4f43-9458-eeaffc4bb2b5}, ! Handle
  0.9.3;                                  ! Version Identifier

OS:SizingPeriod:DesignDay,
  {4cce06d5-9c3c-4cd5-9dee-70ed26ccb0b0}, ! Handle
  Kaneohe Bay Mcas Ann Htg Wind 99% Condns WS=>MCDB, ! Name
  22.4,                                   ! Maximum Dry-Bulb Temperature {C}
  0,                                      ! Daily Dry-Bulb Temperature Range {deltaC}
  22.4,                                   ! Humidity Indicating Conditions at Maximum Dry-Bulb {BasedOnField A3}
  101289,                                 ! Barometric Pressure {Pa}
  9.3,                                    ! Wind Speed {m/s}
  180,                                    ! Wind Direction {deg}
  0,                                      ! Sky Clearness
  0,                                      ! Rain Indicator
  0,                                      ! Snow Indicator
  21,                                     ! Day of Month
  2,                                      ! Month
  WinterDesignDay,                        ! Day Type
  0,                                      ! Daylight Saving Time Indicator
  Wetbulb,                                ! Humidity Indicating Type
  ,                                       ! Humidity Indicating Day Schedule Name
  DefaultMultipliers,                     ! Dry-Bulb Temperature Range Modifier Type
  ,                                       ! Dry-Bulb Temperature Range Modifier Schedule Name
  ASHRAEClearSky;                         ! Solar Model Indicator

OS:ComponentData,
  {10a647ff-d5a1-4561-ab02-9c40aacb65d5}, ! Handle
  Component Data 1,                       ! Name
  {55661de9-be76-4a05-8647-5314da73edcf}, ! UUID
  {7cb1718f-320e-4d4c-9a9b-5386c15e9de7}, ! Version UUID
  1366307103,                             ! Creation Timestamp
  1366307103,                             ! Version Timestamp
  {4cce06d5-9c3c-4cd5-9dee-70ed26ccb0b0}; ! Name of Object 1

