
OS:Version,
  {abf295a5-7277-4060-8ec4-f3e5edea6503}, ! Handle
  0.9.3;                                  ! Version Identifier

OS:SizingPeriod:DesignDay,
  {5bc5e2a2-3c89-40de-b40e-50db951e1be3}, ! Handle
  DAGGETT Ann Clg 2% Condns Enth=>MDB,    ! Name
  35.7,                                   ! Maximum Dry-Bulb Temperature {C}
  16.6,                                   ! Daily Dry-Bulb Temperature Range {deltaC}
  63800,                                  ! Humidity Indicating Conditions at Maximum Dry-Bulb {BasedOnField A3}
  94458,                                  ! Barometric Pressure {Pa}
  4.8,                                    ! Wind Speed {m/s}
  290,                                    ! Wind Direction {deg}
  0,                                      ! Sky Clearness
  0,                                      ! Rain Indicator
  0,                                      ! Snow Indicator
  21,                                     ! Day of Month
  7,                                      ! Month
  SummerDesignDay,                        ! Day Type
  0,                                      ! Daylight Saving Time Indicator
  Enthalpy,                               ! Humidity Indicating Type
  ,                                       ! Humidity Indicating Day Schedule Name
  DefaultMultipliers,                     ! Dry-Bulb Temperature Range Modifier Type
  ,                                       ! Dry-Bulb Temperature Range Modifier Schedule Name
  ASHRAETau,                              ! Solar Model Indicator
  ,                                       ! Beam Solar Day Schedule Name
  ,                                       ! Diffuse Solar Day Schedule Name
  0.497,                                  ! ASHRAE Taub {dimensionless}
  1.821;                                  ! ASHRAE Taud {dimensionless}

OS:ComponentData,
  {c6878702-5602-4627-80fb-6e658136f68b}, ! Handle
  Component Data 1,                       ! Name
  {987e5c64-bba9-4818-b05f-4e5944568805}, ! UUID
  {ef560583-4a4f-4422-8cfa-7010d4ea77ee}, ! Version UUID
  1366306372,                             ! Creation Timestamp
  1366306372,                             ! Version Timestamp
  {5bc5e2a2-3c89-40de-b40e-50db951e1be3}; ! Name of Object 1

