
OS:Version,
  {fc242753-1c50-48a6-9881-ec0d526df64b}, ! Handle
  0.9.3;                                  ! Version Identifier

OS:SizingPeriod:DesignDay,
  {020dad35-caf5-434b-88e2-ea096f634d4e}, ! Handle
  Fayetteville Pope Afb Ann Clg 1% Condns DB=>MWB, ! Name
  34.6,                                   ! Maximum Dry-Bulb Temperature {C}
  10.4,                                   ! Daily Dry-Bulb Temperature Range {deltaC}
  24.3,                                   ! Humidity Indicating Conditions at Maximum Dry-Bulb {BasedOnField A3}
  100535,                                 ! Barometric Pressure {Pa}
  3.4,                                    ! Wind Speed {m/s}
  230,                                    ! Wind Direction {deg}
  0,                                      ! Sky Clearness
  0,                                      ! Rain Indicator
  0,                                      ! Snow Indicator
  21,                                     ! Day of Month
  7,                                      ! Month
  SummerDesignDay,                        ! Day Type
  0,                                      ! Daylight Saving Time Indicator
  Wetbulb,                                ! Humidity Indicating Type
  ,                                       ! Humidity Indicating Day Schedule Name
  DefaultMultipliers,                     ! Dry-Bulb Temperature Range Modifier Type
  ,                                       ! Dry-Bulb Temperature Range Modifier Schedule Name
  ASHRAETau,                              ! Solar Model Indicator
  ,                                       ! Beam Solar Day Schedule Name
  ,                                       ! Diffuse Solar Day Schedule Name
  0.584,                                  ! ASHRAE Taub {dimensionless}
  1.713;                                  ! ASHRAE Taud {dimensionless}

OS:ComponentData,
  {2d81377a-dfac-43ab-93a6-302cffa65b73}, ! Handle
  Component Data 1,                       ! Name
  {813f2326-0773-40c8-a131-b7b4882377f7}, ! UUID
  {1cb311e9-7b02-4302-bf42-d72f5779fd4f}, ! Version UUID
  1366308910,                             ! Creation Timestamp
  1366308910,                             ! Version Timestamp
  {020dad35-caf5-434b-88e2-ea096f634d4e}; ! Name of Object 1

