
OS:Version,
  {cb5f2530-90cf-4898-a841-6229140c84ee}, ! Handle
  0.9.3;                                  ! Version Identifier

OS:SizingPeriod:DesignDay,
  {5637d3f3-52f3-4ad2-a003-d11c00913208}, ! Handle
  CHARLESTON Ann Clg .4% Condns Enth=>MDB, ! Name
  30.1,                                   ! Maximum Dry-Bulb Temperature {C}
  10.7,                                   ! Daily Dry-Bulb Temperature Range {deltaC}
  76700,                                  ! Humidity Indicating Conditions at Maximum Dry-Bulb {BasedOnField A3}
  97889,                                  ! Barometric Pressure {Pa}
  2.9,                                    ! Wind Speed {m/s}
  240,                                    ! Wind Direction {deg}
  0,                                      ! Sky Clearness
  0,                                      ! Rain Indicator
  0,                                      ! Snow Indicator
  21,                                     ! Day of Month
  7,                                      ! Month
  SummerDesignDay,                        ! Day Type
  0,                                      ! Daylight Saving Time Indicator
  Enthalpy,                               ! Humidity Indicating Type
  ,                                       ! Humidity Indicating Day Schedule Name
  DefaultMultipliers,                     ! Dry-Bulb Temperature Range Modifier Type
  ,                                       ! Dry-Bulb Temperature Range Modifier Schedule Name
  ASHRAETau,                              ! Solar Model Indicator
  ,                                       ! Beam Solar Day Schedule Name
  ,                                       ! Diffuse Solar Day Schedule Name
  0.513,                                  ! ASHRAE Taub {dimensionless}
  1.859;                                  ! ASHRAE Taud {dimensionless}

OS:ComponentData,
  {614229ab-278a-4eda-adf5-13308b7dde9f}, ! Handle
  Component Data 1,                       ! Name
  {a3fe8ba4-9ddf-480f-913a-cdd534d7a59e}, ! UUID
  {b6dcd6bb-8530-410c-9ff4-531349ccc96a}, ! Version UUID
  1366311632,                             ! Creation Timestamp
  1366311632,                             ! Version Timestamp
  {5637d3f3-52f3-4ad2-a003-d11c00913208}; ! Name of Object 1

