
OS:Version,
  {dd3ff974-cca4-4aa1-b6e3-e87ebef200ec}, ! Handle
  0.9.3;                                  ! Version Identifier

OS:SizingPeriod:DesignDay,
  {0bf52dc4-5798-4192-8194-47343fbb65f4}, ! Handle
  Livermore Municipal Ann Clg .4% Condns Enth=>MDB, ! Name
  35,                                     ! Maximum Dry-Bulb Temperature {C}
  16.2,                                   ! Daily Dry-Bulb Temperature Range {deltaC}
  62800,                                  ! Humidity Indicating Conditions at Maximum Dry-Bulb {BasedOnField A3}
  99880,                                  ! Barometric Pressure {Pa}
  4.6,                                    ! Wind Speed {m/s}
  270,                                    ! Wind Direction {deg}
  0,                                      ! Sky Clearness
  0,                                      ! Rain Indicator
  0,                                      ! Snow Indicator
  21,                                     ! Day of Month
  7,                                      ! Month
  SummerDesignDay,                        ! Day Type
  0,                                      ! Daylight Saving Time Indicator
  Enthalpy,                               ! Humidity Indicating Type
  ,                                       ! Humidity Indicating Day Schedule Name
  DefaultMultipliers,                     ! Dry-Bulb Temperature Range Modifier Type
  ,                                       ! Dry-Bulb Temperature Range Modifier Schedule Name
  ASHRAETau,                              ! Solar Model Indicator
  ,                                       ! Beam Solar Day Schedule Name
  ,                                       ! Diffuse Solar Day Schedule Name
  0.375,                                  ! ASHRAE Taub {dimensionless}
  2.377;                                  ! ASHRAE Taud {dimensionless}

OS:ComponentData,
  {2c035b3b-2bbe-4cd8-b769-1655de9089a7}, ! Handle
  Component Data 1,                       ! Name
  {ed3e94e9-cc26-4d04-a0a2-2fbe138040b3}, ! UUID
  {1b3a30d6-55f3-406e-819f-59690119cb40}, ! Version UUID
  1366306464,                             ! Creation Timestamp
  1366306464,                             ! Version Timestamp
  {0bf52dc4-5798-4192-8194-47343fbb65f4}; ! Name of Object 1

