
OS:Version,
  {a3be91c8-27ec-4a5f-bd7f-9c5c522b4503}, ! Handle
  0.9.3;                                  ! Version Identifier

OS:SizingPeriod:DesignDay,
  {963020e6-5f71-4a43-9670-83684967a202}, ! Handle
  Adak NAS Ann Clg 2% Condns DP=>MDB,     ! Name
  12.1,                                   ! Maximum Dry-Bulb Temperature {C}
  4.9,                                    ! Daily Dry-Bulb Temperature Range {deltaC}
  9.6,                                    ! Humidity Indicating Conditions at Maximum Dry-Bulb {BasedOnField A3}
  101265,                                 ! Barometric Pressure {Pa}
  4.9,                                    ! Wind Speed {m/s}
  180,                                    ! Wind Direction {deg}
  0,                                      ! Sky Clearness
  0,                                      ! Rain Indicator
  0,                                      ! Snow Indicator
  21,                                     ! Day of Month
  8,                                      ! Month
  SummerDesignDay,                        ! Day Type
  0,                                      ! Daylight Saving Time Indicator
  Dewpoint,                               ! Humidity Indicating Type
  ,                                       ! Humidity Indicating Day Schedule Name
  DefaultMultipliers,                     ! Dry-Bulb Temperature Range Modifier Type
  ,                                       ! Dry-Bulb Temperature Range Modifier Schedule Name
  ASHRAETau,                              ! Solar Model Indicator
  ,                                       ! Beam Solar Day Schedule Name
  ,                                       ! Diffuse Solar Day Schedule Name
  0.394,                                  ! ASHRAE Taub {dimensionless}
  2.21;                                   ! ASHRAE Taud {dimensionless}

OS:ComponentData,
  {0a68fdac-92cb-4be3-87a7-44e58caa90e0}, ! Handle
  Component Data 1,                       ! Name
  {c8209346-937a-41f1-8c59-91a4bca63e25}, ! UUID
  {c38ff424-19a4-4b56-95b6-d275c640462c}, ! Version UUID
  1364004394,                             ! Creation Timestamp
  1364004394,                             ! Version Timestamp
  {963020e6-5f71-4a43-9670-83684967a202}; ! Name of Object 1

