
OS:Version,
  {0104eccd-69ea-4426-87d1-845a7b7c13e2}, ! Handle
  0.9.3;                                  ! Version Identifier

OS:SizingPeriod:DesignDay,
  {230bf1f4-0513-49ab-822b-71d5e2755dde}, ! Handle
  Akron Washington Co Ap Ann Clg 1% Condns Enth=>MDB, ! Name
  27.9,                                   ! Maximum Dry-Bulb Temperature {C}
  14.3,                                   ! Daily Dry-Bulb Temperature Range {deltaC}
  61400,                                  ! Humidity Indicating Conditions at Maximum Dry-Bulb {BasedOnField A3}
  85379,                                  ! Barometric Pressure {Pa}
  5.1,                                    ! Wind Speed {m/s}
  130,                                    ! Wind Direction {deg}
  0,                                      ! Sky Clearness
  0,                                      ! Rain Indicator
  0,                                      ! Snow Indicator
  21,                                     ! Day of Month
  7,                                      ! Month
  SummerDesignDay,                        ! Day Type
  0,                                      ! Daylight Saving Time Indicator
  Enthalpy,                               ! Humidity Indicating Type
  ,                                       ! Humidity Indicating Day Schedule Name
  DefaultMultipliers,                     ! Dry-Bulb Temperature Range Modifier Type
  ,                                       ! Dry-Bulb Temperature Range Modifier Schedule Name
  ASHRAETau,                              ! Solar Model Indicator
  ,                                       ! Beam Solar Day Schedule Name
  ,                                       ! Diffuse Solar Day Schedule Name
  0.414,                                  ! ASHRAE Taub {dimensionless}
  2.041;                                  ! ASHRAE Taud {dimensionless}

OS:ComponentData,
  {e302e2fb-278c-494b-965e-cc945f17d422}, ! Handle
  Component Data 1,                       ! Name
  {c7dc8217-4057-4f46-820b-2eba4ab9f018}, ! UUID
  {7cf64aa6-e9ec-43fa-952d-e40d016642ca}, ! Version UUID
  1366306636,                             ! Creation Timestamp
  1366306636,                             ! Version Timestamp
  {230bf1f4-0513-49ab-822b-71d5e2755dde}; ! Name of Object 1

