
OS:Version,
  {4d43f35a-92c1-426a-84c2-c700e5a645fc}, ! Handle
  0.9.3;                                  ! Version Identifier

OS:SizingPeriod:DesignDay,
  {eccd0229-6114-468d-8ae8-2c42ed51e852}, ! Handle
  Kearney Muni  Awos Ann Clg 2% Condns DB=>MWB, ! Name
  31.4,                                   ! Maximum Dry-Bulb Temperature {C}
  12.2,                                   ! Daily Dry-Bulb Temperature Range {deltaC}
  21.5,                                   ! Humidity Indicating Conditions at Maximum Dry-Bulb {BasedOnField A3}
  93767,                                  ! Barometric Pressure {Pa}
  6.4,                                    ! Wind Speed {m/s}
  190,                                    ! Wind Direction {deg}
  0,                                      ! Sky Clearness
  0,                                      ! Rain Indicator
  0,                                      ! Snow Indicator
  21,                                     ! Day of Month
  7,                                      ! Month
  SummerDesignDay,                        ! Day Type
  0,                                      ! Daylight Saving Time Indicator
  Wetbulb,                                ! Humidity Indicating Type
  ,                                       ! Humidity Indicating Day Schedule Name
  DefaultMultipliers,                     ! Dry-Bulb Temperature Range Modifier Type
  ,                                       ! Dry-Bulb Temperature Range Modifier Schedule Name
  ASHRAETau,                              ! Solar Model Indicator
  ,                                       ! Beam Solar Day Schedule Name
  ,                                       ! Diffuse Solar Day Schedule Name
  0.404,                                  ! ASHRAE Taub {dimensionless}
  2.221;                                  ! ASHRAE Taud {dimensionless}

OS:ComponentData,
  {ff37e2e4-5975-4c2d-aa24-0b582e753601}, ! Handle
  Component Data 1,                       ! Name
  {880451fe-b059-4308-9c89-718b6d91bad8}, ! UUID
  {2f5c3865-f3ac-4a6c-a0b6-d3426c2aaab2}, ! Version UUID
  1366309135,                             ! Creation Timestamp
  1366309135,                             ! Version Timestamp
  {eccd0229-6114-468d-8ae8-2c42ed51e852}; ! Name of Object 1

