
OS:Version,
  {e6e9cc31-770f-4e6f-9386-f67166aaa184}, ! Handle
  0.9.3;                                  ! Version Identifier

OS:SizingPeriod:DesignDay,
  {69adf13a-2763-464c-a69f-ecc92d1c1525}, ! Handle
  Belleville Scott Afb Ann Clg 2% Condns WB=>MDB, ! Name
  30.7,                                   ! Maximum Dry-Bulb Temperature {C}
  11,                                     ! Daily Dry-Bulb Temperature Range {deltaC}
  25.3,                                   ! Humidity Indicating Conditions at Maximum Dry-Bulb {BasedOnField A3}
  99714,                                  ! Barometric Pressure {Pa}
  3.4,                                    ! Wind Speed {m/s}
  190,                                    ! Wind Direction {deg}
  0,                                      ! Sky Clearness
  0,                                      ! Rain Indicator
  0,                                      ! Snow Indicator
  21,                                     ! Day of Month
  7,                                      ! Month
  SummerDesignDay,                        ! Day Type
  0,                                      ! Daylight Saving Time Indicator
  Wetbulb,                                ! Humidity Indicating Type
  ,                                       ! Humidity Indicating Day Schedule Name
  DefaultMultipliers,                     ! Dry-Bulb Temperature Range Modifier Type
  ,                                       ! Dry-Bulb Temperature Range Modifier Schedule Name
  ASHRAETau,                              ! Solar Model Indicator
  ,                                       ! Beam Solar Day Schedule Name
  ,                                       ! Diffuse Solar Day Schedule Name
  0.48,                                   ! ASHRAE Taub {dimensionless}
  1.976;                                  ! ASHRAE Taud {dimensionless}

OS:ComponentData,
  {2311e18f-ffd6-46ec-9fe9-896db4639cc5}, ! Handle
  Component Data 1,                       ! Name
  {26e608a4-ecfb-462a-b4e5-e97046b17d83}, ! UUID
  {6e517d4f-64a3-4789-abde-ec24f78ed8aa}, ! Version UUID
  1366307323,                             ! Creation Timestamp
  1366307323,                             ! Version Timestamp
  {69adf13a-2763-464c-a69f-ecc92d1c1525}; ! Name of Object 1

