
OS:Version,
  {4dbc3953-55db-4489-9f83-b9062194dce6}, ! Handle
  0.9.3;                                  ! Version Identifier

OS:SizingPeriod:DesignDay,
  {07a36f99-2108-40f7-8059-111476edcfdf}, ! Handle
  CLEVELAND Ann Hum_n 99% Condns DP=>MCDB, ! Name
  -12.2,                                  ! Maximum Dry-Bulb Temperature {C}
  0,                                      ! Daily Dry-Bulb Temperature Range {deltaC}
  -17.5,                                  ! Humidity Indicating Conditions at Maximum Dry-Bulb {BasedOnField A3}
  98416,                                  ! Barometric Pressure {Pa}
  4.7,                                    ! Wind Speed {m/s}
  230,                                    ! Wind Direction {deg}
  0,                                      ! Sky Clearness
  0,                                      ! Rain Indicator
  0,                                      ! Snow Indicator
  21,                                     ! Day of Month
  1,                                      ! Month
  WinterDesignDay,                        ! Day Type
  0,                                      ! Daylight Saving Time Indicator
  Dewpoint,                               ! Humidity Indicating Type
  ,                                       ! Humidity Indicating Day Schedule Name
  DefaultMultipliers,                     ! Dry-Bulb Temperature Range Modifier Type
  ,                                       ! Dry-Bulb Temperature Range Modifier Schedule Name
  ASHRAEClearSky;                         ! Solar Model Indicator

OS:ComponentData,
  {f8ea99e1-51a0-4ae4-bc14-576bb5e623fe}, ! Handle
  Component Data 1,                       ! Name
  {cd321237-f0d6-4157-afdf-4c2595aab61e}, ! UUID
  {a312f55c-11f9-44bd-98e9-389b6add9f5d}, ! Version UUID
  1366309785,                             ! Creation Timestamp
  1366309785,                             ! Version Timestamp
  {07a36f99-2108-40f7-8059-111476edcfdf}; ! Name of Object 1

