
OS:Version,
  {3043dc0a-2b61-4bbf-bd8e-136001538164}, ! Handle
  0.9.3;                                  ! Version Identifier

OS:SizingPeriod:DesignDay,
  {07249399-9b0e-4f36-8bfe-a9c809688a4b}, ! Handle
  Baker Municipal Ap Ann Clg 2% Condns Enth=>MDB, ! Name
  28.5,                                   ! Maximum Dry-Bulb Temperature {C}
  19.6,                                   ! Daily Dry-Bulb Temperature Range {deltaC}
  50500,                                  ! Humidity Indicating Conditions at Maximum Dry-Bulb {BasedOnField A3}
  89581,                                  ! Barometric Pressure {Pa}
  3.9,                                    ! Wind Speed {m/s}
  320,                                    ! Wind Direction {deg}
  0,                                      ! Sky Clearness
  0,                                      ! Rain Indicator
  0,                                      ! Snow Indicator
  21,                                     ! Day of Month
  7,                                      ! Month
  SummerDesignDay,                        ! Day Type
  0,                                      ! Daylight Saving Time Indicator
  Enthalpy,                               ! Humidity Indicating Type
  ,                                       ! Humidity Indicating Day Schedule Name
  DefaultMultipliers,                     ! Dry-Bulb Temperature Range Modifier Type
  ,                                       ! Dry-Bulb Temperature Range Modifier Schedule Name
  ASHRAETau,                              ! Solar Model Indicator
  ,                                       ! Beam Solar Day Schedule Name
  ,                                       ! Diffuse Solar Day Schedule Name
  0.363,                                  ! ASHRAE Taub {dimensionless}
  2.324;                                  ! ASHRAE Taud {dimensionless}

OS:ComponentData,
  {b05a79f8-0fc8-40ba-a3a9-c89829d1a76d}, ! Handle
  Component Data 1,                       ! Name
  {0267214a-24de-4abc-b2af-7d81ff1bbad6}, ! UUID
  {4c6d1d30-4cfd-47a6-b047-5a02bd5f55d3}, ! Version UUID
  1366309988,                             ! Creation Timestamp
  1366309988,                             ! Version Timestamp
  {07249399-9b0e-4f36-8bfe-a9c809688a4b}; ! Name of Object 1

