
OS:Version,
  {e47b91e1-435c-4c49-9550-f48a3d174cd0}, ! Handle
  0.9.3;                                  ! Version Identifier

OS:SizingPeriod:DesignDay,
  {3a890a2e-a76c-4e20-b00e-b4bddffccb06}, ! Handle
  Honolulu Intl Arpt Ann Clg 1% Condns DP=>MDB, ! Name
  27,                                     ! Maximum Dry-Bulb Temperature {C}
  7.1,                                    ! Daily Dry-Bulb Temperature Range {deltaC}
  23.3,                                   ! Humidity Indicating Conditions at Maximum Dry-Bulb {BasedOnField A3}
  101301,                                 ! Barometric Pressure {Pa}
  6.7,                                    ! Wind Speed {m/s}
  60,                                     ! Wind Direction {deg}
  0,                                      ! Sky Clearness
  0,                                      ! Rain Indicator
  0,                                      ! Snow Indicator
  21,                                     ! Day of Month
  8,                                      ! Month
  SummerDesignDay,                        ! Day Type
  0,                                      ! Daylight Saving Time Indicator
  Dewpoint,                               ! Humidity Indicating Type
  ,                                       ! Humidity Indicating Day Schedule Name
  DefaultMultipliers,                     ! Dry-Bulb Temperature Range Modifier Type
  ,                                       ! Dry-Bulb Temperature Range Modifier Schedule Name
  ASHRAETau,                              ! Solar Model Indicator
  ,                                       ! Beam Solar Day Schedule Name
  ,                                       ! Diffuse Solar Day Schedule Name
  0.382,                                  ! ASHRAE Taub {dimensionless}
  2.521;                                  ! ASHRAE Taud {dimensionless}

OS:ComponentData,
  {e3d4c0af-9d57-4daa-a2d9-ee560f262c23}, ! Handle
  Component Data 1,                       ! Name
  {e0c650bc-f254-4395-8e83-6c30bc0b3ee0}, ! UUID
  {2ddb0323-7f66-4eae-831c-6ad999f05e6b}, ! Version UUID
  1366307094,                             ! Creation Timestamp
  1366307094,                             ! Version Timestamp
  {3a890a2e-a76c-4e20-b00e-b4bddffccb06}; ! Name of Object 1

