
OS:Version,
  {7e7dae5a-abd9-436b-b280-1a1114069c2d}, ! Handle
  0.9.3;                                  ! Version Identifier

OS:SizingPeriod:DesignDay,
  {343ae38a-0e33-4380-87c8-cc892fa46663}, ! Handle
  Florence Regional Ap Ann Clg 1% Condns DB=>MWB, ! Name
  34.1,                                   ! Maximum Dry-Bulb Temperature {C}
  10.6,                                   ! Daily Dry-Bulb Temperature Range {deltaC}
  24.6,                                   ! Humidity Indicating Conditions at Maximum Dry-Bulb {BasedOnField A3}
  100798,                                 ! Barometric Pressure {Pa}
  4.1,                                    ! Wind Speed {m/s}
  230,                                    ! Wind Direction {deg}
  0,                                      ! Sky Clearness
  0,                                      ! Rain Indicator
  0,                                      ! Snow Indicator
  21,                                     ! Day of Month
  7,                                      ! Month
  SummerDesignDay,                        ! Day Type
  0,                                      ! Daylight Saving Time Indicator
  Wetbulb,                                ! Humidity Indicating Type
  ,                                       ! Humidity Indicating Day Schedule Name
  DefaultMultipliers,                     ! Dry-Bulb Temperature Range Modifier Type
  ,                                       ! Dry-Bulb Temperature Range Modifier Schedule Name
  ASHRAETau,                              ! Solar Model Indicator
  ,                                       ! Beam Solar Day Schedule Name
  ,                                       ! Diffuse Solar Day Schedule Name
  0.573,                                  ! ASHRAE Taub {dimensionless}
  1.746;                                  ! ASHRAE Taud {dimensionless}

OS:ComponentData,
  {ca3bbada-534b-427d-a419-cf74e2f6b173}, ! Handle
  Component Data 1,                       ! Name
  {8648df1a-74fa-4bc5-944d-1f3f435f8cb8}, ! UUID
  {8fecfffb-181f-4978-9457-33cd6e5d125f}, ! Version UUID
  1366310352,                             ! Creation Timestamp
  1366310352,                             ! Version Timestamp
  {343ae38a-0e33-4380-87c8-cc892fa46663}; ! Name of Object 1

