
OS:Version,
  {917e97c2-09b4-42b0-aea3-97e1c1ef4d96}, ! Handle
  0.9.3;                                  ! Version Identifier

OS:SizingPeriod:DesignDay,
  {6e8ae3f1-2161-400e-befc-2451873d39c6}, ! Handle
  Hickory Regional Ap Ann Clg .4% Condns DP=>MDB, ! Name
  26.5,                                   ! Maximum Dry-Bulb Temperature {C}
  10.3,                                   ! Daily Dry-Bulb Temperature Range {deltaC}
  23,                                     ! Humidity Indicating Conditions at Maximum Dry-Bulb {BasedOnField A3}
  97214,                                  ! Barometric Pressure {Pa}
  3.4,                                    ! Wind Speed {m/s}
  280,                                    ! Wind Direction {deg}
  0,                                      ! Sky Clearness
  0,                                      ! Rain Indicator
  0,                                      ! Snow Indicator
  21,                                     ! Day of Month
  7,                                      ! Month
  SummerDesignDay,                        ! Day Type
  0,                                      ! Daylight Saving Time Indicator
  Dewpoint,                               ! Humidity Indicating Type
  ,                                       ! Humidity Indicating Day Schedule Name
  DefaultMultipliers,                     ! Dry-Bulb Temperature Range Modifier Type
  ,                                       ! Dry-Bulb Temperature Range Modifier Schedule Name
  ASHRAETau,                              ! Solar Model Indicator
  ,                                       ! Beam Solar Day Schedule Name
  ,                                       ! Diffuse Solar Day Schedule Name
  0.542,                                  ! ASHRAE Taub {dimensionless}
  1.787;                                  ! ASHRAE Taud {dimensionless}

OS:ComponentData,
  {1b22599d-a4be-480f-a0c5-5ee53a3aa79d}, ! Handle
  Component Data 1,                       ! Name
  {c7808cdd-5125-446f-972e-bc77ca93b2e6}, ! UUID
  {d4a71130-2465-42be-9ad5-8aa41f0b423f}, ! Version UUID
  1366308941,                             ! Creation Timestamp
  1366308941,                             ! Version Timestamp
  {6e8ae3f1-2161-400e-befc-2451873d39c6}; ! Name of Object 1

