
OS:Version,
  {65c4a5eb-0a02-422b-8bd8-6846bee22fa9}, ! Handle
  0.9.3;                                  ! Version Identifier

OS:SizingPeriod:DesignDay,
  {bfd677eb-ce07-4ea4-81bf-ccd357be8387}, ! Handle
  Dyersburg Municipal Ap Ann Clg .4% Condns WB=>MDB, ! Name
  32.9,                                   ! Maximum Dry-Bulb Temperature {C}
  9.6,                                    ! Daily Dry-Bulb Temperature Range {deltaC}
  26.7,                                   ! Humidity Indicating Conditions at Maximum Dry-Bulb {BasedOnField A3}
  100094,                                 ! Barometric Pressure {Pa}
  2.9,                                    ! Wind Speed {m/s}
  220,                                    ! Wind Direction {deg}
  0,                                      ! Sky Clearness
  0,                                      ! Rain Indicator
  0,                                      ! Snow Indicator
  21,                                     ! Day of Month
  7,                                      ! Month
  SummerDesignDay,                        ! Day Type
  0,                                      ! Daylight Saving Time Indicator
  Wetbulb,                                ! Humidity Indicating Type
  ,                                       ! Humidity Indicating Day Schedule Name
  DefaultMultipliers,                     ! Dry-Bulb Temperature Range Modifier Type
  ,                                       ! Dry-Bulb Temperature Range Modifier Schedule Name
  ASHRAETau,                              ! Solar Model Indicator
  ,                                       ! Beam Solar Day Schedule Name
  ,                                       ! Diffuse Solar Day Schedule Name
  0.496,                                  ! ASHRAE Taub {dimensionless}
  1.94;                                   ! ASHRAE Taud {dimensionless}

OS:ComponentData,
  {c274ec75-b0e0-4c9a-abc4-61ed95e76e7b}, ! Handle
  Component Data 1,                       ! Name
  {dca6250d-43f8-4e06-8c97-6a69eb1302c8}, ! UUID
  {cdec6a69-45a8-46e9-bc69-3ab5ebb69931}, ! Version UUID
  1366310500,                             ! Creation Timestamp
  1366310500,                             ! Version Timestamp
  {bfd677eb-ce07-4ea4-81bf-ccd357be8387}; ! Name of Object 1

