
OS:Version,
  {4c3390a0-96fe-4d16-a269-3b563afbe3d4}, ! Handle
  0.9.3;                                  ! Version Identifier

OS:SizingPeriod:DesignDay,
  {c9e3a928-1272-4db1-b600-7e0c4c0c6838}, ! Handle
  Laredo AFB Ann Htg Wind 99.6% Condns WS=>MCDB, ! Name
  17.9,                                   ! Maximum Dry-Bulb Temperature {C}
  0,                                      ! Daily Dry-Bulb Temperature Range {deltaC}
  17.9,                                   ! Humidity Indicating Conditions at Maximum Dry-Bulb {BasedOnField A3}
  99512,                                  ! Barometric Pressure {Pa}
  11.7,                                   ! Wind Speed {m/s}
  0,                                      ! Wind Direction {deg}
  0,                                      ! Sky Clearness
  0,                                      ! Rain Indicator
  0,                                      ! Snow Indicator
  21,                                     ! Day of Month
  1,                                      ! Month
  WinterDesignDay,                        ! Day Type
  0,                                      ! Daylight Saving Time Indicator
  Wetbulb,                                ! Humidity Indicating Type
  ,                                       ! Humidity Indicating Day Schedule Name
  DefaultMultipliers,                     ! Dry-Bulb Temperature Range Modifier Type
  ,                                       ! Dry-Bulb Temperature Range Modifier Schedule Name
  ASHRAEClearSky;                         ! Solar Model Indicator

OS:ComponentData,
  {5673640c-00b8-499a-b454-bbfd3e0c406e}, ! Handle
  Component Data 1,                       ! Name
  {621374c2-47e1-4f77-bde8-61323dabc703}, ! UUID
  {50e20b3a-d567-4ff7-9d25-2144f2054f84}, ! Version UUID
  1366310779,                             ! Creation Timestamp
  1366310779,                             ! Version Timestamp
  {c9e3a928-1272-4db1-b600-7e0c4c0c6838}; ! Name of Object 1

