
OS:Version,
  {e32d7e91-43a8-4c67-af92-d831f08125a1}, ! Handle
  0.9.3;                                  ! Version Identifier

OS:SizingPeriod:DesignDay,
  {167baf79-8956-42bc-b32d-38aa96f0a000}, ! Handle
  Aitkin Ndb Awos Ann Clg 2% Condns DB=>MWB, ! Name
  27.1,                                   ! Maximum Dry-Bulb Temperature {C}
  12.5,                                   ! Daily Dry-Bulb Temperature Range {deltaC}
  21.5,                                   ! Humidity Indicating Conditions at Maximum Dry-Bulb {BasedOnField A3}
  96993,                                  ! Barometric Pressure {Pa}
  4,                                      ! Wind Speed {m/s}
  160,                                    ! Wind Direction {deg}
  0,                                      ! Sky Clearness
  0,                                      ! Rain Indicator
  0,                                      ! Snow Indicator
  21,                                     ! Day of Month
  7,                                      ! Month
  SummerDesignDay,                        ! Day Type
  0,                                      ! Daylight Saving Time Indicator
  Wetbulb,                                ! Humidity Indicating Type
  ,                                       ! Humidity Indicating Day Schedule Name
  DefaultMultipliers,                     ! Dry-Bulb Temperature Range Modifier Type
  ,                                       ! Dry-Bulb Temperature Range Modifier Schedule Name
  ASHRAETau,                              ! Solar Model Indicator
  ,                                       ! Beam Solar Day Schedule Name
  ,                                       ! Diffuse Solar Day Schedule Name
  0.396,                                  ! ASHRAE Taub {dimensionless}
  2.234;                                  ! ASHRAE Taud {dimensionless}

OS:ComponentData,
  {236091af-31bf-44f9-b9c0-c96c15a984d9}, ! Handle
  Component Data 1,                       ! Name
  {cbc0ccde-7985-4f11-84e7-5a0b976afd33}, ! UUID
  {e18bb630-acf9-4141-a0fe-385fb4bb387a}, ! Version UUID
  1366308135,                             ! Creation Timestamp
  1366308135,                             ! Version Timestamp
  {167baf79-8956-42bc-b32d-38aa96f0a000}; ! Name of Object 1

