
OS:Version,
  {16a4be94-81f9-4512-9f44-4cba105c6ac8}, ! Handle
  0.9.3;                                  ! Version Identifier

OS:SizingPeriod:DesignDay,
  {602f8771-3777-4f91-91a9-ac626c7bf49f}, ! Handle
  Birmingham Ann Htg Wind 99% Condns WS=>MCDB, ! Name
  9.1,                                    ! Maximum Dry-Bulb Temperature {C}
  0,                                      ! Daily Dry-Bulb Temperature Range {deltaC}
  9.1,                                    ! Humidity Indicating Conditions at Maximum Dry-Bulb {BasedOnField A3}
  99040,                                  ! Barometric Pressure {Pa}
  8.4,                                    ! Wind Speed {m/s}
  350,                                    ! Wind Direction {deg}
  0,                                      ! Sky Clearness
  0,                                      ! Rain Indicator
  0,                                      ! Snow Indicator
  21,                                     ! Day of Month
  1,                                      ! Month
  WinterDesignDay,                        ! Day Type
  0,                                      ! Daylight Saving Time Indicator
  Wetbulb,                                ! Humidity Indicating Type
  ,                                       ! Humidity Indicating Day Schedule Name
  DefaultMultipliers,                     ! Dry-Bulb Temperature Range Modifier Type
  ,                                       ! Dry-Bulb Temperature Range Modifier Schedule Name
  ASHRAEClearSky;                         ! Solar Model Indicator

OS:ComponentData,
  {1c970fec-e008-456d-920e-43207c2c5b00}, ! Handle
  Component Data 1,                       ! Name
  {0bae4787-77cd-4229-a268-9ab943ac1c89}, ! UUID
  {87fd06ad-0441-46b2-80e1-bd8da74d301c}, ! Version UUID
  1366305642,                             ! Creation Timestamp
  1366305642,                             ! Version Timestamp
  {602f8771-3777-4f91-91a9-ac626c7bf49f}; ! Name of Object 1

