
OS:Version,
  {cf481050-0b10-44f7-a6d1-aa2caedcb43b}, ! Handle
  0.9.3;                                  ! Version Identifier

OS:SizingPeriod:DesignDay,
  {88a7e6fd-f4cf-4927-a142-6d8759e46cc6}, ! Handle
  Lihue Ann Htg Wind 99% Condns WS=>MCDB, ! Name
  22.1,                                   ! Maximum Dry-Bulb Temperature {C}
  0,                                      ! Daily Dry-Bulb Temperature Range {deltaC}
  22.1,                                   ! Humidity Indicating Conditions at Maximum Dry-Bulb {BasedOnField A3}
  100786,                                 ! Barometric Pressure {Pa}
  11.8,                                   ! Wind Speed {m/s}
  280,                                    ! Wind Direction {deg}
  0,                                      ! Sky Clearness
  0,                                      ! Rain Indicator
  0,                                      ! Snow Indicator
  21,                                     ! Day of Month
  2,                                      ! Month
  WinterDesignDay,                        ! Day Type
  0,                                      ! Daylight Saving Time Indicator
  Wetbulb,                                ! Humidity Indicating Type
  ,                                       ! Humidity Indicating Day Schedule Name
  DefaultMultipliers,                     ! Dry-Bulb Temperature Range Modifier Type
  ,                                       ! Dry-Bulb Temperature Range Modifier Schedule Name
  ASHRAEClearSky;                         ! Solar Model Indicator

OS:ComponentData,
  {41129bf8-6cd2-4d86-877e-a673cbdc4d55}, ! Handle
  Component Data 1,                       ! Name
  {f625cabf-632a-4de6-adb2-a33377ca38bc}, ! UUID
  {25084eda-418c-4989-912b-6d0bcc6483c5}, ! Version UUID
  1366307116,                             ! Creation Timestamp
  1366307116,                             ! Version Timestamp
  {88a7e6fd-f4cf-4927-a142-6d8759e46cc6}; ! Name of Object 1

