
OS:Version,
  {47c156cb-fa70-412f-ab40-029ae900332b}, ! Handle
  0.9.3;                                  ! Version Identifier

OS:SizingPeriod:DesignDay,
  {2fabc8af-12f4-4136-ac66-4bfa812343b7}, ! Handle
  GREAT_FALLS Ann Clg .4% Condns Enth=>MDB, ! Name
  29.4,                                   ! Maximum Dry-Bulb Temperature {C}
  14.5,                                   ! Daily Dry-Bulb Temperature Range {deltaC}
  56500,                                  ! Humidity Indicating Conditions at Maximum Dry-Bulb {BasedOnField A3}
  88617,                                  ! Barometric Pressure {Pa}
  3.9,                                    ! Wind Speed {m/s}
  260,                                    ! Wind Direction {deg}
  0,                                      ! Sky Clearness
  0,                                      ! Rain Indicator
  0,                                      ! Snow Indicator
  21,                                     ! Day of Month
  7,                                      ! Month
  SummerDesignDay,                        ! Day Type
  0,                                      ! Daylight Saving Time Indicator
  Enthalpy,                               ! Humidity Indicating Type
  ,                                       ! Humidity Indicating Day Schedule Name
  DefaultMultipliers,                     ! Dry-Bulb Temperature Range Modifier Type
  ,                                       ! Dry-Bulb Temperature Range Modifier Schedule Name
  ASHRAETau,                              ! Solar Model Indicator
  ,                                       ! Beam Solar Day Schedule Name
  ,                                       ! Diffuse Solar Day Schedule Name
  0.389,                                  ! ASHRAE Taub {dimensionless}
  2.154;                                  ! ASHRAE Taud {dimensionless}

OS:ComponentData,
  {0565ba85-27d0-486c-bc54-bba67892b3b0}, ! Handle
  Component Data 1,                       ! Name
  {459d9419-bf11-48b8-ab48-59591bcda063}, ! UUID
  {3037da31-8698-4163-94b9-21142db2ac38}, ! Version UUID
  1366308773,                             ! Creation Timestamp
  1366308773,                             ! Version Timestamp
  {2fabc8af-12f4-4136-ac66-4bfa812343b7}; ! Name of Object 1

