
OS:Version,
  {ff52b1e8-c5aa-4613-b161-d0912da5ef6e}, ! Handle
  0.9.3;                                  ! Version Identifier

OS:SizingPeriod:DesignDay,
  {0ab41af0-bb28-42b4-926c-69c5a0ef9e07}, ! Handle
  Grissom Arb Ann Htg Wind 99% Condns WS=>MCDB, ! Name
  -7.9,                                   ! Maximum Dry-Bulb Temperature {C}
  0,                                      ! Daily Dry-Bulb Temperature Range {deltaC}
  -7.9,                                   ! Humidity Indicating Conditions at Maximum Dry-Bulb {BasedOnField A3}
  98322,                                  ! Barometric Pressure {Pa}
  12.7,                                   ! Wind Speed {m/s}
  270,                                    ! Wind Direction {deg}
  0,                                      ! Sky Clearness
  0,                                      ! Rain Indicator
  0,                                      ! Snow Indicator
  21,                                     ! Day of Month
  1,                                      ! Month
  WinterDesignDay,                        ! Day Type
  0,                                      ! Daylight Saving Time Indicator
  Wetbulb,                                ! Humidity Indicating Type
  ,                                       ! Humidity Indicating Day Schedule Name
  DefaultMultipliers,                     ! Dry-Bulb Temperature Range Modifier Type
  ,                                       ! Dry-Bulb Temperature Range Modifier Schedule Name
  ASHRAEClearSky;                         ! Solar Model Indicator

OS:ComponentData,
  {2e9c1a79-d5ec-474e-8a32-42724783a898}, ! Handle
  Component Data 1,                       ! Name
  {8f889d4a-89b2-4e85-a5f5-0f4ed9cec17a}, ! UUID
  {e1ffb0f8-eaa6-4a57-83d7-9c2e4db64814}, ! Version UUID
  1366307450,                             ! Creation Timestamp
  1366307450,                             ! Version Timestamp
  {0ab41af0-bb28-42b4-926c-69c5a0ef9e07}; ! Name of Object 1

