
OS:Version,
  {993001d5-5047-4bfd-9273-0b0de8e24d14}, ! Handle
  0.9.3;                                  ! Version Identifier

OS:SizingPeriod:DesignDay,
  {76a24014-52d6-4c2f-a843-cafe2bac475d}, ! Handle
  Hanford Ann Hum_n 99% Condns DP=>MCDB,  ! Name
  -9.4,                                   ! Maximum Dry-Bulb Temperature {C}
  0,                                      ! Daily Dry-Bulb Temperature Range {deltaC}
  -15.2,                                  ! Humidity Indicating Conditions at Maximum Dry-Bulb {BasedOnField A3}
  98675,                                  ! Barometric Pressure {Pa}
  2.2,                                    ! Wind Speed {m/s}
  290,                                    ! Wind Direction {deg}
  0,                                      ! Sky Clearness
  0,                                      ! Rain Indicator
  0,                                      ! Snow Indicator
  21,                                     ! Day of Month
  12,                                     ! Month
  WinterDesignDay,                        ! Day Type
  0,                                      ! Daylight Saving Time Indicator
  Dewpoint,                               ! Humidity Indicating Type
  ,                                       ! Humidity Indicating Day Schedule Name
  DefaultMultipliers,                     ! Dry-Bulb Temperature Range Modifier Type
  ,                                       ! Dry-Bulb Temperature Range Modifier Schedule Name
  ASHRAEClearSky;                         ! Solar Model Indicator

OS:ComponentData,
  {7c0e8235-0e21-4dca-94e1-6da8ec21dd80}, ! Handle
  Component Data 1,                       ! Name
  {8fa4bb00-2554-4255-812e-fb150b96901f}, ! UUID
  {51b325fa-be06-439d-bc01-11ad61f6b4cc}, ! Version UUID
  1366311286,                             ! Creation Timestamp
  1366311286,                             ! Version Timestamp
  {76a24014-52d6-4c2f-a843-cafe2bac475d}; ! Name of Object 1

