
OS:Version,
  {e913262e-7b6e-47aa-b19f-794c253d0239}, ! Handle
  0.9.3;                                  ! Version Identifier

OS:SizingPeriod:DesignDay,
  {55a93057-3a2d-4234-870f-9bce333fa68a}, ! Handle
  Harrisburg Capital City Arpt Ann Htg 99.6% Condns DB, ! Name
  -13,                                    ! Maximum Dry-Bulb Temperature {C}
  0,                                      ! Daily Dry-Bulb Temperature Range {deltaC}
  -13,                                    ! Humidity Indicating Conditions at Maximum Dry-Bulb {BasedOnField A3}
  100082,                                 ! Barometric Pressure {Pa}
  3.5,                                    ! Wind Speed {m/s}
  270,                                    ! Wind Direction {deg}
  0,                                      ! Sky Clearness
  0,                                      ! Rain Indicator
  0,                                      ! Snow Indicator
  21,                                     ! Day of Month
  1,                                      ! Month
  WinterDesignDay,                        ! Day Type
  0,                                      ! Daylight Saving Time Indicator
  Wetbulb,                                ! Humidity Indicating Type
  ,                                       ! Humidity Indicating Day Schedule Name
  DefaultMultipliers,                     ! Dry-Bulb Temperature Range Modifier Type
  ,                                       ! Dry-Bulb Temperature Range Modifier Schedule Name
  ASHRAEClearSky;                         ! Solar Model Indicator

OS:ComponentData,
  {4db7a8d5-c475-4600-962a-e81a9d7ebc42}, ! Handle
  Component Data 1,                       ! Name
  {d40a2e56-4e9a-4859-9d36-f65fced393ca}, ! UUID
  {369059ab-806e-4660-86f2-5fe013f81d1d}, ! Version UUID
  1366310186,                             ! Creation Timestamp
  1366310186,                             ! Version Timestamp
  {55a93057-3a2d-4234-870f-9bce333fa68a}; ! Name of Object 1

