
OS:Version,
  {46f264d0-e6fa-4dbe-a933-335f2c0c8ea1}, ! Handle
  0.9.3;                                  ! Version Identifier

OS:SizingPeriod:DesignDay,
  {766f423a-07bc-4d99-8351-4ab4e358d9b4}, ! Handle
  Barbers Point Nas Ann Hum_n 99.6% Condns DP=>MCDB, ! Name
  18.6,                                   ! Maximum Dry-Bulb Temperature {C}
  0,                                      ! Daily Dry-Bulb Temperature Range {deltaC}
  8.9,                                    ! Humidity Indicating Conditions at Maximum Dry-Bulb {BasedOnField A3}
  101145,                                 ! Barometric Pressure {Pa}
  2.1,                                    ! Wind Speed {m/s}
  40,                                     ! Wind Direction {deg}
  0,                                      ! Sky Clearness
  0,                                      ! Rain Indicator
  0,                                      ! Snow Indicator
  21,                                     ! Day of Month
  1,                                      ! Month
  WinterDesignDay,                        ! Day Type
  0,                                      ! Daylight Saving Time Indicator
  Dewpoint,                               ! Humidity Indicating Type
  ,                                       ! Humidity Indicating Day Schedule Name
  DefaultMultipliers,                     ! Dry-Bulb Temperature Range Modifier Type
  ,                                       ! Dry-Bulb Temperature Range Modifier Schedule Name
  ASHRAEClearSky;                         ! Solar Model Indicator

OS:ComponentData,
  {2029a64b-3b7b-49b7-97c4-abd757142e46}, ! Handle
  Component Data 1,                       ! Name
  {5f397a65-821b-4bdd-996d-9fd1d8f440b0}, ! UUID
  {9c9b1519-9de8-46e9-b08d-0465947595ec}, ! Version UUID
  1366307073,                             ! Creation Timestamp
  1366307073,                             ! Version Timestamp
  {766f423a-07bc-4d99-8351-4ab4e358d9b4}; ! Name of Object 1

