
OS:Version,
  {e24d9041-bfe4-46f3-8d51-8cee1b8ccd8d}, ! Handle
  0.9.3;                                  ! Version Identifier

OS:SizingPeriod:DesignDay,
  {f0561eea-99d0-413e-821b-79b887df9011}, ! Handle
  Cedar City Ann Clg 1% Condns DB=>MWB,   ! Name
  32.8,                                   ! Maximum Dry-Bulb Temperature {C}
  16.7,                                   ! Daily Dry-Bulb Temperature Range {deltaC}
  14.9,                                   ! Humidity Indicating Conditions at Maximum Dry-Bulb {BasedOnField A3}
  82359,                                  ! Barometric Pressure {Pa}
  5,                                      ! Wind Speed {m/s}
  210,                                    ! Wind Direction {deg}
  0,                                      ! Sky Clearness
  0,                                      ! Rain Indicator
  0,                                      ! Snow Indicator
  21,                                     ! Day of Month
  7,                                      ! Month
  SummerDesignDay,                        ! Day Type
  0,                                      ! Daylight Saving Time Indicator
  Wetbulb,                                ! Humidity Indicating Type
  ,                                       ! Humidity Indicating Day Schedule Name
  DefaultMultipliers,                     ! Dry-Bulb Temperature Range Modifier Type
  ,                                       ! Dry-Bulb Temperature Range Modifier Schedule Name
  ASHRAETau,                              ! Solar Model Indicator
  ,                                       ! Beam Solar Day Schedule Name
  ,                                       ! Diffuse Solar Day Schedule Name
  0.415,                                  ! ASHRAE Taub {dimensionless}
  2.019;                                  ! ASHRAE Taud {dimensionless}

OS:ComponentData,
  {c45df0e3-182e-4cdb-a246-ef02f97068e3}, ! Handle
  Component Data 1,                       ! Name
  {86bd2c12-275e-489a-8296-5f773b3e0ed0}, ! UUID
  {31a00635-530e-423a-afe8-850adfc07f49}, ! Version UUID
  1366310954,                             ! Creation Timestamp
  1366310954,                             ! Version Timestamp
  {f0561eea-99d0-413e-821b-79b887df9011}; ! Name of Object 1

