
OS:Version,
  {56308206-a583-4c09-b0f9-f16da051e5b5}, ! Handle
  0.9.3;                                  ! Version Identifier

OS:SizingPeriod:DesignDay,
  {d49f852f-2bc1-43b4-bb0a-12aec72ad10e}, ! Handle
  Fulton Co Arpt Brow Ann Clg 2% Condns WB=>MDB, ! Name
  29.6,                                   ! Maximum Dry-Bulb Temperature {C}
  10.3,                                   ! Daily Dry-Bulb Temperature Range {deltaC}
  24.2,                                   ! Humidity Indicating Conditions at Maximum Dry-Bulb {BasedOnField A3}
  98205,                                  ! Barometric Pressure {Pa}
  3.3,                                    ! Wind Speed {m/s}
  310,                                    ! Wind Direction {deg}
  0,                                      ! Sky Clearness
  0,                                      ! Rain Indicator
  0,                                      ! Snow Indicator
  21,                                     ! Day of Month
  7,                                      ! Month
  SummerDesignDay,                        ! Day Type
  0,                                      ! Daylight Saving Time Indicator
  Wetbulb,                                ! Humidity Indicating Type
  ,                                       ! Humidity Indicating Day Schedule Name
  DefaultMultipliers,                     ! Dry-Bulb Temperature Range Modifier Type
  ,                                       ! Dry-Bulb Temperature Range Modifier Schedule Name
  ASHRAETau,                              ! Solar Model Indicator
  ,                                       ! Beam Solar Day Schedule Name
  ,                                       ! Diffuse Solar Day Schedule Name
  0.565,                                  ! ASHRAE Taub {dimensionless}
  1.76;                                   ! ASHRAE Taud {dimensionless}

OS:ComponentData,
  {015d1750-a001-4377-b8a5-889ba40648e4}, ! Handle
  Component Data 1,                       ! Name
  {378558b1-b23c-4d94-928e-db40e09f18a5}, ! UUID
  {8120c290-9ba8-4f40-b619-4ffeee5a6e0c}, ! Version UUID
  1366307014,                             ! Creation Timestamp
  1366307014,                             ! Version Timestamp
  {d49f852f-2bc1-43b4-bb0a-12aec72ad10e}; ! Name of Object 1

