
OS:Version,
  {7cea5f6e-cda7-434d-b26e-bdebf76a6b5c}, ! Handle
  0.9.3;                                  ! Version Identifier

OS:SizingPeriod:DesignDay,
  {8f983a6d-9011-4bc8-8970-f057900b7a67}, ! Handle
  Cape May Co Ann Hum_n 99.6% Condns DP=>MCDB, ! Name
  0.1,                                    ! Maximum Dry-Bulb Temperature {C}
  0,                                      ! Daily Dry-Bulb Temperature Range {deltaC}
  -26.2,                                  ! Humidity Indicating Conditions at Maximum Dry-Bulb {BasedOnField A3}
  101241,                                 ! Barometric Pressure {Pa}
  4.8,                                    ! Wind Speed {m/s}
  320,                                    ! Wind Direction {deg}
  0,                                      ! Sky Clearness
  0,                                      ! Rain Indicator
  0,                                      ! Snow Indicator
  21,                                     ! Day of Month
  1,                                      ! Month
  WinterDesignDay,                        ! Day Type
  0,                                      ! Daylight Saving Time Indicator
  Dewpoint,                               ! Humidity Indicating Type
  ,                                       ! Humidity Indicating Day Schedule Name
  DefaultMultipliers,                     ! Dry-Bulb Temperature Range Modifier Type
  ,                                       ! Dry-Bulb Temperature Range Modifier Schedule Name
  ASHRAEClearSky;                         ! Solar Model Indicator

OS:ComponentData,
  {dfb4e91d-6184-461c-b11c-4f94d9ebe52e}, ! Handle
  Component Data 1,                       ! Name
  {5ba8adc6-4140-4aa6-818a-e4c2ffb8d8a8}, ! UUID
  {c9b44529-3600-4b28-8357-9394a9431909}, ! Version UUID
  1366309302,                             ! Creation Timestamp
  1366309302,                             ! Version Timestamp
  {8f983a6d-9011-4bc8-8970-f057900b7a67}; ! Name of Object 1

