
OS:Version,
  {ffc5ccf9-5280-4c0a-88fe-3a36bee2c2d8}, ! Handle
  0.9.3;                                  ! Version Identifier

OS:SizingPeriod:DesignDay,
  {469861bf-9e5e-4f87-9c69-8e1612a97efb}, ! Handle
  ARCATA Ann Clg 1% Condns WB=>MDB,       ! Name
  18.6,                                   ! Maximum Dry-Bulb Temperature {C}
  6.5,                                    ! Daily Dry-Bulb Temperature Range {deltaC}
  16.1,                                   ! Humidity Indicating Conditions at Maximum Dry-Bulb {BasedOnField A3}
  100499,                                 ! Barometric Pressure {Pa}
  4.3,                                    ! Wind Speed {m/s}
  320,                                    ! Wind Direction {deg}
  0,                                      ! Sky Clearness
  0,                                      ! Rain Indicator
  0,                                      ! Snow Indicator
  21,                                     ! Day of Month
  8,                                      ! Month
  SummerDesignDay,                        ! Day Type
  0,                                      ! Daylight Saving Time Indicator
  Wetbulb,                                ! Humidity Indicating Type
  ,                                       ! Humidity Indicating Day Schedule Name
  DefaultMultipliers,                     ! Dry-Bulb Temperature Range Modifier Type
  ,                                       ! Dry-Bulb Temperature Range Modifier Schedule Name
  ASHRAETau,                              ! Solar Model Indicator
  ,                                       ! Beam Solar Day Schedule Name
  ,                                       ! Diffuse Solar Day Schedule Name
  0.365,                                  ! ASHRAE Taub {dimensionless}
  2.513;                                  ! ASHRAE Taud {dimensionless}

OS:ComponentData,
  {d5d5c3b1-82b3-4e04-a396-f31ee9421df6}, ! Handle
  Component Data 1,                       ! Name
  {ec66c37a-5117-477e-a0e3-e05843fabdde}, ! UUID
  {a8a7ca75-d08d-4e22-9332-064b53a59603}, ! Version UUID
  1366306346,                             ! Creation Timestamp
  1366306346,                             ! Version Timestamp
  {469861bf-9e5e-4f87-9c69-8e1612a97efb}; ! Name of Object 1

