
OS:Version,
  {b96df49b-faf9-4cd5-8cfa-20b21c88d39a}, ! Handle
  0.9.3;                                  ! Version Identifier

OS:SizingPeriod:DesignDay,
  {e2d25826-4916-4e07-9103-2f2575097dd1}, ! Handle
  Havre City County Ap Ann Clg 1% Condns WB=>MDB, ! Name
  29.4,                                   ! Maximum Dry-Bulb Temperature {C}
  16.4,                                   ! Daily Dry-Bulb Temperature Range {deltaC}
  18.4,                                   ! Humidity Indicating Conditions at Maximum Dry-Bulb {BasedOnField A3}
  92210,                                  ! Barometric Pressure {Pa}
  4.4,                                    ! Wind Speed {m/s}
  260,                                    ! Wind Direction {deg}
  0,                                      ! Sky Clearness
  0,                                      ! Rain Indicator
  0,                                      ! Snow Indicator
  21,                                     ! Day of Month
  7,                                      ! Month
  SummerDesignDay,                        ! Day Type
  0,                                      ! Daylight Saving Time Indicator
  Wetbulb,                                ! Humidity Indicating Type
  ,                                       ! Humidity Indicating Day Schedule Name
  DefaultMultipliers,                     ! Dry-Bulb Temperature Range Modifier Type
  ,                                       ! Dry-Bulb Temperature Range Modifier Schedule Name
  ASHRAETau,                              ! Solar Model Indicator
  ,                                       ! Beam Solar Day Schedule Name
  ,                                       ! Diffuse Solar Day Schedule Name
  0.404,                                  ! ASHRAE Taub {dimensionless}
  2.116;                                  ! ASHRAE Taud {dimensionless}

OS:ComponentData,
  {08294833-14cf-49ea-b413-097516f47751}, ! Handle
  Component Data 1,                       ! Name
  {4e18e367-51a4-4931-b94a-b1dd8e553499}, ! UUID
  {7f4cb50b-64d7-4ef0-9792-d68ddf0dafa7}, ! Version UUID
  1366308785,                             ! Creation Timestamp
  1366308785,                             ! Version Timestamp
  {e2d25826-4916-4e07-9103-2f2575097dd1}; ! Name of Object 1

