
OS:Version,
  {bbec662b-dfbc-46f1-88c6-9cbc00c23510}, ! Handle
  0.9.3;                                  ! Version Identifier

OS:SizingPeriod:DesignDay,
  {9f77ed1d-cb18-46f6-a048-78137efcd52d}, ! Handle
  Little Rock Afb Ann Clg 2% Condns WB=>MDB, ! Name
  31.8,                                   ! Maximum Dry-Bulb Temperature {C}
  11.1,                                   ! Daily Dry-Bulb Temperature Range {deltaC}
  26.1,                                   ! Humidity Indicating Conditions at Maximum Dry-Bulb {BasedOnField A3}
  100094,                                 ! Barometric Pressure {Pa}
  3.5,                                    ! Wind Speed {m/s}
  190,                                    ! Wind Direction {deg}
  0,                                      ! Sky Clearness
  0,                                      ! Rain Indicator
  0,                                      ! Snow Indicator
  21,                                     ! Day of Month
  7,                                      ! Month
  SummerDesignDay,                        ! Day Type
  0,                                      ! Daylight Saving Time Indicator
  Wetbulb,                                ! Humidity Indicating Type
  ,                                       ! Humidity Indicating Day Schedule Name
  DefaultMultipliers,                     ! Dry-Bulb Temperature Range Modifier Type
  ,                                       ! Dry-Bulb Temperature Range Modifier Schedule Name
  ASHRAETau,                              ! Solar Model Indicator
  ,                                       ! Beam Solar Day Schedule Name
  ,                                       ! Diffuse Solar Day Schedule Name
  0.512,                                  ! ASHRAE Taub {dimensionless}
  1.909;                                  ! ASHRAE Taud {dimensionless}

OS:ComponentData,
  {d13408b2-0fcf-4673-b0e7-125484074a59}, ! Handle
  Component Data 1,                       ! Name
  {5f4beac9-bedc-467c-bdbc-2f45ba9acd85}, ! UUID
  {83b6cd7a-0ccd-4621-a2e3-fda757e62e5e}, ! Version UUID
  1366306235,                             ! Creation Timestamp
  1366306235,                             ! Version Timestamp
  {9f77ed1d-cb18-46f6-a048-78137efcd52d}; ! Name of Object 1

