
OS:Version,
  {6fbc6f6b-293c-440d-8ff2-24490fd4720b}, ! Handle
  0.9.3;                                  ! Version Identifier

OS:SizingPeriod:DesignDay,
  {bd153cab-02b6-46dd-bcd8-2cb98c17de80}, ! Handle
  Keesler Afb Ann Clg .4% Condns DB=>MWB, ! Name
  34.1,                                   ! Maximum Dry-Bulb Temperature {C}
  7.5,                                    ! Daily Dry-Bulb Temperature Range {deltaC}
  26.8,                                   ! Humidity Indicating Conditions at Maximum Dry-Bulb {BasedOnField A3}
  101229,                                 ! Barometric Pressure {Pa}
  3.7,                                    ! Wind Speed {m/s}
  200,                                    ! Wind Direction {deg}
  0,                                      ! Sky Clearness
  0,                                      ! Rain Indicator
  0,                                      ! Snow Indicator
  21,                                     ! Day of Month
  7,                                      ! Month
  SummerDesignDay,                        ! Day Type
  0,                                      ! Daylight Saving Time Indicator
  Wetbulb,                                ! Humidity Indicating Type
  ,                                       ! Humidity Indicating Day Schedule Name
  DefaultMultipliers,                     ! Dry-Bulb Temperature Range Modifier Type
  ,                                       ! Dry-Bulb Temperature Range Modifier Schedule Name
  ASHRAETau,                              ! Solar Model Indicator
  ,                                       ! Beam Solar Day Schedule Name
  ,                                       ! Diffuse Solar Day Schedule Name
  0.556,                                  ! ASHRAE Taub {dimensionless}
  1.829;                                  ! ASHRAE Taud {dimensionless}

OS:ComponentData,
  {d860ceec-4620-43c1-968f-e6ea6da6873f}, ! Handle
  Component Data 1,                       ! Name
  {5add61f9-0d2b-4ad0-b288-3a2ac738c385}, ! UUID
  {5a368c21-fce2-47fb-9a9b-d0d9be471dd4}, ! Version UUID
  1366308607,                             ! Creation Timestamp
  1366308607,                             ! Version Timestamp
  {bd153cab-02b6-46dd-bcd8-2cb98c17de80}; ! Name of Object 1

