
OS:Version,
  {4bc1b7ed-9776-46e1-981f-8feec111ceee}, ! Handle
  0.9.3;                                  ! Version Identifier

OS:SizingPeriod:DesignDay,
  {79994e7e-e77b-40b0-bbf9-ea7ffa8b32d4}, ! Handle
  Kalamazoo Battle Cr Ann Clg 2% Condns Enth=>MDB, ! Name
  27.3,                                   ! Maximum Dry-Bulb Temperature {C}
  11.1,                                   ! Daily Dry-Bulb Temperature Range {deltaC}
  68600,                                  ! Humidity Indicating Conditions at Maximum Dry-Bulb {BasedOnField A3}
  98088,                                  ! Barometric Pressure {Pa}
  4.8,                                    ! Wind Speed {m/s}
  210,                                    ! Wind Direction {deg}
  0,                                      ! Sky Clearness
  0,                                      ! Rain Indicator
  0,                                      ! Snow Indicator
  21,                                     ! Day of Month
  7,                                      ! Month
  SummerDesignDay,                        ! Day Type
  0,                                      ! Daylight Saving Time Indicator
  Enthalpy,                               ! Humidity Indicating Type
  ,                                       ! Humidity Indicating Day Schedule Name
  DefaultMultipliers,                     ! Dry-Bulb Temperature Range Modifier Type
  ,                                       ! Dry-Bulb Temperature Range Modifier Schedule Name
  ASHRAETau,                              ! Solar Model Indicator
  ,                                       ! Beam Solar Day Schedule Name
  ,                                       ! Diffuse Solar Day Schedule Name
  0.424,                                  ! ASHRAE Taub {dimensionless}
  2.175;                                  ! ASHRAE Taud {dimensionless}

OS:ComponentData,
  {c008179d-a34e-4129-88d2-8e0d1243796f}, ! Handle
  Component Data 1,                       ! Name
  {7213a3d3-2134-4d02-ba1d-e7b365cf6f27}, ! UUID
  {8d65d896-1d34-4fb8-8de0-ec8c6f72a52d}, ! Version UUID
  1366308050,                             ! Creation Timestamp
  1366308050,                             ! Version Timestamp
  {79994e7e-e77b-40b0-bbf9-ea7ffa8b32d4}; ! Name of Object 1

