
OS:Version,
  {87d6a882-04a9-4e79-a415-6acd9f45c734}, ! Handle
  0.9.3;                                  ! Version Identifier

OS:SizingPeriod:DesignDay,
  {72f0b484-e5c3-480a-a4b9-c42d0dec12ea}, ! Handle
  Antigo Lang Awos Ann Clg 1% Condns DB=>MWB, ! Name
  27.8,                                   ! Maximum Dry-Bulb Temperature {C}
  12.1,                                   ! Daily Dry-Bulb Temperature Range {deltaC}
  21.4,                                   ! Humidity Indicating Conditions at Maximum Dry-Bulb {BasedOnField A3}
  95874,                                  ! Barometric Pressure {Pa}
  4.8,                                    ! Wind Speed {m/s}
  210,                                    ! Wind Direction {deg}
  0,                                      ! Sky Clearness
  0,                                      ! Rain Indicator
  0,                                      ! Snow Indicator
  21,                                     ! Day of Month
  7,                                      ! Month
  SummerDesignDay,                        ! Day Type
  0,                                      ! Daylight Saving Time Indicator
  Wetbulb,                                ! Humidity Indicating Type
  ,                                       ! Humidity Indicating Day Schedule Name
  DefaultMultipliers,                     ! Dry-Bulb Temperature Range Modifier Type
  ,                                       ! Dry-Bulb Temperature Range Modifier Schedule Name
  ASHRAETau,                              ! Solar Model Indicator
  ,                                       ! Beam Solar Day Schedule Name
  ,                                       ! Diffuse Solar Day Schedule Name
  0.403,                                  ! ASHRAE Taub {dimensionless}
  2.215;                                  ! ASHRAE Taud {dimensionless}

OS:ComponentData,
  {e5de17d5-2e86-4dd8-8cad-8bc1a723ca11}, ! Handle
  Component Data 1,                       ! Name
  {a6d1578e-fd15-4cd1-bdda-ab5375f7cd05}, ! UUID
  {8d5d2507-a604-46c7-8f62-53cd50360710}, ! Version UUID
  1366311479,                             ! Creation Timestamp
  1366311479,                             ! Version Timestamp
  {72f0b484-e5c3-480a-a4b9-c42d0dec12ea}; ! Name of Object 1

