
OS:Version,
  {98958cd5-341e-43d5-afba-2b279aea1c7a}, ! Handle
  0.9.3;                                  ! Version Identifier

OS:SizingPeriod:DesignDay,
  {7db4768b-4955-45ca-8658-6ba450da7eb0}, ! Handle
  Eagle County Ap Ann Clg 1% Condns DP=>MDB, ! Name
  18.1,                                   ! Maximum Dry-Bulb Temperature {C}
  19,                                     ! Daily Dry-Bulb Temperature Range {deltaC}
  12.4,                                   ! Humidity Indicating Conditions at Maximum Dry-Bulb {BasedOnField A3}
  79693,                                  ! Barometric Pressure {Pa}
  4.9,                                    ! Wind Speed {m/s}
  240,                                    ! Wind Direction {deg}
  0,                                      ! Sky Clearness
  0,                                      ! Rain Indicator
  0,                                      ! Snow Indicator
  21,                                     ! Day of Month
  7,                                      ! Month
  SummerDesignDay,                        ! Day Type
  0,                                      ! Daylight Saving Time Indicator
  Dewpoint,                               ! Humidity Indicating Type
  ,                                       ! Humidity Indicating Day Schedule Name
  DefaultMultipliers,                     ! Dry-Bulb Temperature Range Modifier Type
  ,                                       ! Dry-Bulb Temperature Range Modifier Schedule Name
  ASHRAETau,                              ! Solar Model Indicator
  ,                                       ! Beam Solar Day Schedule Name
  ,                                       ! Diffuse Solar Day Schedule Name
  0.4,                                    ! ASHRAE Taub {dimensionless}
  2.165;                                  ! ASHRAE Taud {dimensionless}

OS:ComponentData,
  {730d7c77-e745-487f-986b-77cb70d7def5}, ! Handle
  Component Data 1,                       ! Name
  {93b1478c-0633-4463-9b59-2170d5b19fa6}, ! UUID
  {c5857372-a9ed-4a04-9031-b7fd33323783}, ! Version UUID
  1366306688,                             ! Creation Timestamp
  1366306688,                             ! Version Timestamp
  {7db4768b-4955-45ca-8658-6ba450da7eb0}; ! Name of Object 1

