
OS:Version,
  {40517688-e18e-429e-a131-b8b3f984ed33}, ! Handle
  0.9.3;                                  ! Version Identifier

OS:SizingPeriod:DesignDay,
  {a0392db8-5271-4861-bb41-518c6987992e}, ! Handle
  El Paso International Ap  Ut Ann Clg 1% Condns Enth=>MDB, ! Name
  29.2,                                   ! Maximum Dry-Bulb Temperature {C}
  13,                                     ! Daily Dry-Bulb Temperature Range {deltaC}
  65500,                                  ! Humidity Indicating Conditions at Maximum Dry-Bulb {BasedOnField A3}
  87865,                                  ! Barometric Pressure {Pa}
  3.9,                                    ! Wind Speed {m/s}
  280,                                    ! Wind Direction {deg}
  0,                                      ! Sky Clearness
  0,                                      ! Rain Indicator
  0,                                      ! Snow Indicator
  21,                                     ! Day of Month
  7,                                      ! Month
  SummerDesignDay,                        ! Day Type
  0,                                      ! Daylight Saving Time Indicator
  Enthalpy,                               ! Humidity Indicating Type
  ,                                       ! Humidity Indicating Day Schedule Name
  DefaultMultipliers,                     ! Dry-Bulb Temperature Range Modifier Type
  ,                                       ! Dry-Bulb Temperature Range Modifier Schedule Name
  ASHRAETau,                              ! Solar Model Indicator
  ,                                       ! Beam Solar Day Schedule Name
  ,                                       ! Diffuse Solar Day Schedule Name
  0.605,                                  ! ASHRAE Taub {dimensionless}
  1.547;                                  ! ASHRAE Taud {dimensionless}

OS:ComponentData,
  {e755731c-9f07-41ef-87a6-994609f73f2f}, ! Handle
  Component Data 1,                       ! Name
  {a0c09560-e316-4d6a-b7be-86335018f29b}, ! UUID
  {7e6b14e8-2c18-4804-bd81-91cedf7afa60}, ! Version UUID
  1366310693,                             ! Creation Timestamp
  1366310693,                             ! Version Timestamp
  {a0392db8-5271-4861-bb41-518c6987992e}; ! Name of Object 1

