
OS:Version,
  {c77499b4-f93c-4c10-80fd-0b96e4e12d8e}, ! Handle
  0.9.3;                                  ! Version Identifier

OS:SizingPeriod:DesignDay,
  {6b07f6e4-5f5e-42e0-b992-37ce5af00ed1}, ! Handle
  Knoxville Ann Clg .4% Condns DB=>MWB,   ! Name
  33.7,                                   ! Maximum Dry-Bulb Temperature {C}
  10.4,                                   ! Daily Dry-Bulb Temperature Range {deltaC}
  23.5,                                   ! Humidity Indicating Conditions at Maximum Dry-Bulb {BasedOnField A3}
  97784,                                  ! Barometric Pressure {Pa}
  3.2,                                    ! Wind Speed {m/s}
  250,                                    ! Wind Direction {deg}
  0,                                      ! Sky Clearness
  0,                                      ! Rain Indicator
  0,                                      ! Snow Indicator
  21,                                     ! Day of Month
  7,                                      ! Month
  SummerDesignDay,                        ! Day Type
  0,                                      ! Daylight Saving Time Indicator
  Wetbulb,                                ! Humidity Indicating Type
  ,                                       ! Humidity Indicating Day Schedule Name
  DefaultMultipliers,                     ! Dry-Bulb Temperature Range Modifier Type
  ,                                       ! Dry-Bulb Temperature Range Modifier Schedule Name
  ASHRAETau,                              ! Solar Model Indicator
  ,                                       ! Beam Solar Day Schedule Name
  ,                                       ! Diffuse Solar Day Schedule Name
  0.547,                                  ! ASHRAE Taub {dimensionless}
  1.786;                                  ! ASHRAE Taud {dimensionless}

OS:ComponentData,
  {9d344c8b-d071-4413-a3e8-460bdf194860}, ! Handle
  Component Data 1,                       ! Name
  {5b954e2b-55be-4e86-9c5c-d1151cdc1ca6}, ! UUID
  {a8e3056f-f596-4dd9-a17c-b8ccd422577b}, ! Version UUID
  1366310508,                             ! Creation Timestamp
  1366310508,                             ! Version Timestamp
  {6b07f6e4-5f5e-42e0-b992-37ce5af00ed1}; ! Name of Object 1

