
OS:Version,
  {cb68fdca-9109-4a7f-bb34-bca9bca23f29}, ! Handle
  0.9.3;                                  ! Version Identifier

OS:SizingPeriod:DesignDay,
  {5dd95da7-190c-4efc-9e18-b052a57150e0}, ! Handle
  Lexington Ann Clg .4% Condns DB=>MWB,   ! Name
  33.2,                                   ! Maximum Dry-Bulb Temperature {C}
  10.2,                                   ! Daily Dry-Bulb Temperature Range {deltaC}
  23.3,                                   ! Humidity Indicating Conditions at Maximum Dry-Bulb {BasedOnField A3}
  97761,                                  ! Barometric Pressure {Pa}
  3.7,                                    ! Wind Speed {m/s}
  250,                                    ! Wind Direction {deg}
  0,                                      ! Sky Clearness
  0,                                      ! Rain Indicator
  0,                                      ! Snow Indicator
  21,                                     ! Day of Month
  7,                                      ! Month
  SummerDesignDay,                        ! Day Type
  0,                                      ! Daylight Saving Time Indicator
  Wetbulb,                                ! Humidity Indicating Type
  ,                                       ! Humidity Indicating Day Schedule Name
  DefaultMultipliers,                     ! Dry-Bulb Temperature Range Modifier Type
  ,                                       ! Dry-Bulb Temperature Range Modifier Schedule Name
  ASHRAETau,                              ! Solar Model Indicator
  ,                                       ! Beam Solar Day Schedule Name
  ,                                       ! Diffuse Solar Day Schedule Name
  0.503,                                  ! ASHRAE Taub {dimensionless}
  1.885;                                  ! ASHRAE Taud {dimensionless}

OS:ComponentData,
  {433a5990-e2f0-4726-88b2-4c47bc27bbe0}, ! Handle
  Component Data 1,                       ! Name
  {bdd00ea7-8dc3-446d-aa72-d31255ef73c2}, ! UUID
  {e13065bd-bcb8-42e8-8c8b-2a8f79df12b8}, ! Version UUID
  1366307647,                             ! Creation Timestamp
  1366307647,                             ! Version Timestamp
  {5dd95da7-190c-4efc-9e18-b052a57150e0}; ! Name of Object 1

