
OS:Version,
  {fbb13a08-e211-4010-8d8b-cff2959986a3}, ! Handle
  0.9.3;                                  ! Version Identifier

OS:SizingPeriod:DesignDay,
  {cf3a5803-283f-4162-8184-3b807459f749}, ! Handle
  Keesler Afb Ann Clg .4% Condns Enth=>MDB, ! Name
  32.3,                                   ! Maximum Dry-Bulb Temperature {C}
  7.5,                                    ! Daily Dry-Bulb Temperature Range {deltaC}
  92100,                                  ! Humidity Indicating Conditions at Maximum Dry-Bulb {BasedOnField A3}
  101229,                                 ! Barometric Pressure {Pa}
  3.7,                                    ! Wind Speed {m/s}
  200,                                    ! Wind Direction {deg}
  0,                                      ! Sky Clearness
  0,                                      ! Rain Indicator
  0,                                      ! Snow Indicator
  21,                                     ! Day of Month
  7,                                      ! Month
  SummerDesignDay,                        ! Day Type
  0,                                      ! Daylight Saving Time Indicator
  Enthalpy,                               ! Humidity Indicating Type
  ,                                       ! Humidity Indicating Day Schedule Name
  DefaultMultipliers,                     ! Dry-Bulb Temperature Range Modifier Type
  ,                                       ! Dry-Bulb Temperature Range Modifier Schedule Name
  ASHRAETau,                              ! Solar Model Indicator
  ,                                       ! Beam Solar Day Schedule Name
  ,                                       ! Diffuse Solar Day Schedule Name
  0.556,                                  ! ASHRAE Taub {dimensionless}
  1.829;                                  ! ASHRAE Taud {dimensionless}

OS:ComponentData,
  {f9bf76b1-cc1f-4905-9790-e48ae26b7758}, ! Handle
  Component Data 1,                       ! Name
  {a58d2920-23ec-4bfe-9e70-7508b8367867}, ! UUID
  {f246ffcb-1131-4177-87f2-585d7e0c715c}, ! Version UUID
  1366308608,                             ! Creation Timestamp
  1366308608,                             ! Version Timestamp
  {cf3a5803-283f-4162-8184-3b807459f749}; ! Name of Object 1

