
OS:Version,
  {d4a92f5c-9676-4029-a5f8-886e7e6d0698}, ! Handle
  0.9.3;                                  ! Version Identifier

OS:SizingPeriod:DesignDay,
  {c0ade1f5-534c-4097-89ff-67184f3b79f4}, ! Handle
  London Corbin Ap Ann Clg .4% Condns Enth=>MDB, ! Name
  30,                                     ! Maximum Dry-Bulb Temperature {C}
  10.4,                                   ! Daily Dry-Bulb Temperature Range {deltaC}
  77200,                                  ! Humidity Indicating Conditions at Maximum Dry-Bulb {BasedOnField A3}
  97051,                                  ! Barometric Pressure {Pa}
  3.2,                                    ! Wind Speed {m/s}
  250,                                    ! Wind Direction {deg}
  0,                                      ! Sky Clearness
  0,                                      ! Rain Indicator
  0,                                      ! Snow Indicator
  21,                                     ! Day of Month
  7,                                      ! Month
  SummerDesignDay,                        ! Day Type
  0,                                      ! Daylight Saving Time Indicator
  Enthalpy,                               ! Humidity Indicating Type
  ,                                       ! Humidity Indicating Day Schedule Name
  DefaultMultipliers,                     ! Dry-Bulb Temperature Range Modifier Type
  ,                                       ! Dry-Bulb Temperature Range Modifier Schedule Name
  ASHRAETau,                              ! Solar Model Indicator
  ,                                       ! Beam Solar Day Schedule Name
  ,                                       ! Diffuse Solar Day Schedule Name
  0.51,                                   ! ASHRAE Taub {dimensionless}
  1.864;                                  ! ASHRAE Taud {dimensionless}

OS:ComponentData,
  {15c92def-e171-4c75-b32c-c39c54d0158f}, ! Handle
  Component Data 1,                       ! Name
  {eaeea44a-6217-481e-9420-68abe8a13f77}, ! UUID
  {7118d9b0-af3c-4a3e-ae6c-10e1b21918c6}, ! Version UUID
  1366307661,                             ! Creation Timestamp
  1366307661,                             ! Version Timestamp
  {c0ade1f5-534c-4097-89ff-67184f3b79f4}; ! Name of Object 1

