
OS:Version,
  {9b3d0521-81fc-4561-8da5-81cd03d33e95}, ! Handle
  0.9.3;                                  ! Version Identifier

OS:SizingPeriod:DesignDay,
  {1e91e342-7e64-4329-bf98-9f7967d88f11}, ! Handle
  ASTORIA Ann Clg .4% Condns Enth=>MDB,   ! Name
  23.4,                                   ! Maximum Dry-Bulb Temperature {C}
  7.9,                                    ! Daily Dry-Bulb Temperature Range {deltaC}
  51500,                                  ! Humidity Indicating Conditions at Maximum Dry-Bulb {BasedOnField A3}
  101241,                                 ! Barometric Pressure {Pa}
  5.1,                                    ! Wind Speed {m/s}
  310,                                    ! Wind Direction {deg}
  0,                                      ! Sky Clearness
  0,                                      ! Rain Indicator
  0,                                      ! Snow Indicator
  21,                                     ! Day of Month
  8,                                      ! Month
  SummerDesignDay,                        ! Day Type
  0,                                      ! Daylight Saving Time Indicator
  Enthalpy,                               ! Humidity Indicating Type
  ,                                       ! Humidity Indicating Day Schedule Name
  DefaultMultipliers,                     ! Dry-Bulb Temperature Range Modifier Type
  ,                                       ! Dry-Bulb Temperature Range Modifier Schedule Name
  ASHRAETau,                              ! Solar Model Indicator
  ,                                       ! Beam Solar Day Schedule Name
  ,                                       ! Diffuse Solar Day Schedule Name
  0.355,                                  ! ASHRAE Taub {dimensionless}
  2.571;                                  ! ASHRAE Taud {dimensionless}

OS:ComponentData,
  {6c2c5962-36f0-4f2c-ac14-b677d8c6c677}, ! Handle
  Component Data 1,                       ! Name
  {f9dfc7ef-2eae-4d8e-9d18-2fbb1058e85b}, ! UUID
  {834b5120-37aa-498c-b283-9f237659be25}, ! Version UUID
  1366309968,                             ! Creation Timestamp
  1366309968,                             ! Version Timestamp
  {1e91e342-7e64-4329-bf98-9f7967d88f11}; ! Name of Object 1

