
OS:Version,
  {a9e89385-7eb1-4e5c-810b-b7d903457975}, ! Handle
  0.9.3;                                  ! Version Identifier

OS:SizingPeriod:DesignDay,
  {9f8dee74-7c45-4eb0-95d9-9fe710455739}, ! Handle
  Evansville Regional Ap Ann Clg 1% Condns Enth=>MDB, ! Name
  31.1,                                   ! Maximum Dry-Bulb Temperature {C}
  10.6,                                   ! Daily Dry-Bulb Temperature Range {deltaC}
  79200,                                  ! Humidity Indicating Conditions at Maximum Dry-Bulb {BasedOnField A3}
  99939,                                  ! Barometric Pressure {Pa}
  3.7,                                    ! Wind Speed {m/s}
  240,                                    ! Wind Direction {deg}
  0,                                      ! Sky Clearness
  0,                                      ! Rain Indicator
  0,                                      ! Snow Indicator
  21,                                     ! Day of Month
  7,                                      ! Month
  SummerDesignDay,                        ! Day Type
  0,                                      ! Daylight Saving Time Indicator
  Enthalpy,                               ! Humidity Indicating Type
  ,                                       ! Humidity Indicating Day Schedule Name
  DefaultMultipliers,                     ! Dry-Bulb Temperature Range Modifier Type
  ,                                       ! Dry-Bulb Temperature Range Modifier Schedule Name
  ASHRAETau,                              ! Solar Model Indicator
  ,                                       ! Beam Solar Day Schedule Name
  ,                                       ! Diffuse Solar Day Schedule Name
  0.508,                                  ! ASHRAE Taub {dimensionless}
  1.881;                                  ! ASHRAE Taud {dimensionless}

OS:ComponentData,
  {c5233a66-d3e9-4bae-a190-aeb2f1a1bf40}, ! Handle
  Component Data 1,                       ! Name
  {f008365c-6f3d-498d-ad3f-52d7e77141bd}, ! UUID
  {1b7162b3-dca6-4a2a-925a-cba03eaff279}, ! Version UUID
  1366307434,                             ! Creation Timestamp
  1366307434,                             ! Version Timestamp
  {9f8dee74-7c45-4eb0-95d9-9fe710455739}; ! Name of Object 1

