
OS:Version,
  {c214f6b9-62d1-40cc-8a97-66ce1e250751}, ! Handle
  0.9.3;                                  ! Version Identifier

OS:SizingPeriod:DesignDay,
  {cf5df463-1bf2-49a5-85d5-2a0e9960452e}, ! Handle
  Lawrence Muni Ann Htg 99% Condns DB,    ! Name
  -12.6,                                  ! Maximum Dry-Bulb Temperature {C}
  0,                                      ! Daily Dry-Bulb Temperature Range {deltaC}
  -12.6,                                  ! Humidity Indicating Conditions at Maximum Dry-Bulb {BasedOnField A3}
  100774,                                 ! Barometric Pressure {Pa}
  3.6,                                    ! Wind Speed {m/s}
  300,                                    ! Wind Direction {deg}
  0,                                      ! Sky Clearness
  0,                                      ! Rain Indicator
  0,                                      ! Snow Indicator
  21,                                     ! Day of Month
  1,                                      ! Month
  WinterDesignDay,                        ! Day Type
  0,                                      ! Daylight Saving Time Indicator
  Wetbulb,                                ! Humidity Indicating Type
  ,                                       ! Humidity Indicating Day Schedule Name
  DefaultMultipliers,                     ! Dry-Bulb Temperature Range Modifier Type
  ,                                       ! Dry-Bulb Temperature Range Modifier Schedule Name
  ASHRAEClearSky;                         ! Solar Model Indicator

OS:ComponentData,
  {c0fdfb4a-ac0b-46fe-ad54-a27439b2d6d7}, ! Handle
  Component Data 1,                       ! Name
  {42a5e1ac-ff8e-4bd8-8867-00377b8f83ff}, ! UUID
  {5b853234-a679-45a4-9e21-2aabff02e075}, ! Version UUID
  1366307797,                             ! Creation Timestamp
  1366307797,                             ! Version Timestamp
  {cf5df463-1bf2-49a5-85d5-2a0e9960452e}; ! Name of Object 1

