
OS:Version,
  {78db3df1-67cb-4008-a348-6ede7b345b18}, ! Handle
  0.9.3;                                  ! Version Identifier

OS:SizingPeriod:DesignDay,
  {0f638d9c-87e9-48d6-8957-fe4249b12358}, ! Handle
  Kake Seaplane Base Ann Clg 1% Condns Enth=>MDB, ! Name
  17.6,                                   ! Maximum Dry-Bulb Temperature {C}
  6.3,                                    ! Daily Dry-Bulb Temperature Range {deltaC}
  39400,                                  ! Humidity Indicating Conditions at Maximum Dry-Bulb {BasedOnField A3}
  101325,                                 ! Barometric Pressure {Pa}
  2.6,                                    ! Wind Speed {m/s}
  280,                                    ! Wind Direction {deg}
  0,                                      ! Sky Clearness
  0,                                      ! Rain Indicator
  0,                                      ! Snow Indicator
  21,                                     ! Day of Month
  7,                                      ! Month
  SummerDesignDay,                        ! Day Type
  0,                                      ! Daylight Saving Time Indicator
  Enthalpy,                               ! Humidity Indicating Type
  ,                                       ! Humidity Indicating Day Schedule Name
  DefaultMultipliers,                     ! Dry-Bulb Temperature Range Modifier Type
  ,                                       ! Dry-Bulb Temperature Range Modifier Schedule Name
  ASHRAETau,                              ! Solar Model Indicator
  ,                                       ! Beam Solar Day Schedule Name
  ,                                       ! Diffuse Solar Day Schedule Name
  0.386,                                  ! ASHRAE Taub {dimensionless}
  2.213;                                  ! ASHRAE Taud {dimensionless}

OS:ComponentData,
  {a093fd49-b1ab-4cf0-bb79-dec78a080c09}, ! Handle
  Component Data 1,                       ! Name
  {c8cd6081-8fbf-4f85-9b67-b1443281bfbc}, ! UUID
  {0beaf501-cead-4acf-993c-14845ef15d76}, ! Version UUID
  1366305345,                             ! Creation Timestamp
  1366305345,                             ! Version Timestamp
  {0f638d9c-87e9-48d6-8957-fe4249b12358}; ! Name of Object 1

