
OS:Version,
  {87dd9ef6-668b-4bee-80f5-63a727cdcb86}, ! Handle
  0.9.3;                                  ! Version Identifier

OS:SizingPeriod:DesignDay,
  {7c0b7b15-aac5-4cdb-a7f9-c933ce4832a4}, ! Handle
  London Corbin Ap Ann Clg 1% Condns DB=>MWB, ! Name
  31.2,                                   ! Maximum Dry-Bulb Temperature {C}
  10.4,                                   ! Daily Dry-Bulb Temperature Range {deltaC}
  22.8,                                   ! Humidity Indicating Conditions at Maximum Dry-Bulb {BasedOnField A3}
  97051,                                  ! Barometric Pressure {Pa}
  3.2,                                    ! Wind Speed {m/s}
  250,                                    ! Wind Direction {deg}
  0,                                      ! Sky Clearness
  0,                                      ! Rain Indicator
  0,                                      ! Snow Indicator
  21,                                     ! Day of Month
  7,                                      ! Month
  SummerDesignDay,                        ! Day Type
  0,                                      ! Daylight Saving Time Indicator
  Wetbulb,                                ! Humidity Indicating Type
  ,                                       ! Humidity Indicating Day Schedule Name
  DefaultMultipliers,                     ! Dry-Bulb Temperature Range Modifier Type
  ,                                       ! Dry-Bulb Temperature Range Modifier Schedule Name
  ASHRAETau,                              ! Solar Model Indicator
  ,                                       ! Beam Solar Day Schedule Name
  ,                                       ! Diffuse Solar Day Schedule Name
  0.51,                                   ! ASHRAE Taub {dimensionless}
  1.864;                                  ! ASHRAE Taud {dimensionless}

OS:ComponentData,
  {206cd6bd-cd32-4093-96f1-1bfb09290963}, ! Handle
  Component Data 1,                       ! Name
  {12a75c14-bdb9-4d9d-97b5-df27b60665d3}, ! UUID
  {e9e917b7-c05d-45d6-b8e1-71cbdd6fa27b}, ! Version UUID
  1366307660,                             ! Creation Timestamp
  1366307660,                             ! Version Timestamp
  {7c0b7b15-aac5-4cdb-a7f9-c933ce4832a4}; ! Name of Object 1

