
OS:Version,
  {525f6c95-9b7e-4531-9d83-ac9cb4d4ea27}, ! Handle
  0.9.3;                                  ! Version Identifier

OS:SizingPeriod:DesignDay,
  {5f441b49-7d43-46d4-ac16-99425d747342}, ! Handle
  College Station Easterwood Fl Ann Hum_n 99% Condns DP=>MCDB, ! Name
  3.3,                                    ! Maximum Dry-Bulb Temperature {C}
  0,                                      ! Daily Dry-Bulb Temperature Range {deltaC}
  -7.9,                                   ! Humidity Indicating Conditions at Maximum Dry-Bulb {BasedOnField A3}
  100177,                                 ! Barometric Pressure {Pa}
  3.8,                                    ! Wind Speed {m/s}
  350,                                    ! Wind Direction {deg}
  0,                                      ! Sky Clearness
  0,                                      ! Rain Indicator
  0,                                      ! Snow Indicator
  21,                                     ! Day of Month
  1,                                      ! Month
  WinterDesignDay,                        ! Day Type
  0,                                      ! Daylight Saving Time Indicator
  Dewpoint,                               ! Humidity Indicating Type
  ,                                       ! Humidity Indicating Day Schedule Name
  DefaultMultipliers,                     ! Dry-Bulb Temperature Range Modifier Type
  ,                                       ! Dry-Bulb Temperature Range Modifier Schedule Name
  ASHRAEClearSky;                         ! Solar Model Indicator

OS:ComponentData,
  {1bef73e0-5a5c-49cd-ad31-dbcd81bd0824}, ! Handle
  Component Data 1,                       ! Name
  {5d6c3af4-10fd-441d-9307-a4112a1c5dde}, ! UUID
  {c995d51b-2782-4518-87da-472e02d09394}, ! Version UUID
  1366310617,                             ! Creation Timestamp
  1366310617,                             ! Version Timestamp
  {5f441b49-7d43-46d4-ac16-99425d747342}; ! Name of Object 1

