
OS:Version,
  {c2f125f7-fa6d-4ca1-902c-0b56119c7f05}, ! Handle
  0.9.3;                                  ! Version Identifier

OS:SizingPeriod:DesignDay,
  {a2e5ef8d-c66e-4472-b701-a344c31b68b6}, ! Handle
  Ely Muni Ann Clg 2% Condns DP=>MDB,     ! Name
  23,                                     ! Maximum Dry-Bulb Temperature {C}
  12.2,                                   ! Daily Dry-Bulb Temperature Range {deltaC}
  19,                                     ! Humidity Indicating Conditions at Maximum Dry-Bulb {BasedOnField A3}
  95977,                                  ! Barometric Pressure {Pa}
  4,                                      ! Wind Speed {m/s}
  230,                                    ! Wind Direction {deg}
  0,                                      ! Sky Clearness
  0,                                      ! Rain Indicator
  0,                                      ! Snow Indicator
  21,                                     ! Day of Month
  7,                                      ! Month
  SummerDesignDay,                        ! Day Type
  0,                                      ! Daylight Saving Time Indicator
  Dewpoint,                               ! Humidity Indicating Type
  ,                                       ! Humidity Indicating Day Schedule Name
  DefaultMultipliers,                     ! Dry-Bulb Temperature Range Modifier Type
  ,                                       ! Dry-Bulb Temperature Range Modifier Schedule Name
  ASHRAETau,                              ! Solar Model Indicator
  ,                                       ! Beam Solar Day Schedule Name
  ,                                       ! Diffuse Solar Day Schedule Name
  0.408,                                  ! ASHRAE Taub {dimensionless}
  2.169;                                  ! ASHRAE Taud {dimensionless}

OS:ComponentData,
  {833b098d-1a23-4041-8e3e-10a2c4bcd88b}, ! Handle
  Component Data 1,                       ! Name
  {f5c92ba7-5d07-422e-a75d-c2e3e81774d6}, ! UUID
  {b2605405-c1d5-44be-9970-6aee17cdf0f9}, ! Version UUID
  1366308216,                             ! Creation Timestamp
  1366308216,                             ! Version Timestamp
  {a2e5ef8d-c66e-4472-b701-a344c31b68b6}; ! Name of Object 1

