
OS:Version,
  {bafa51d7-8759-491b-b22b-a0f5f10f8183}, ! Handle
  0.9.3;                                  ! Version Identifier

OS:SizingPeriod:DesignDay,
  {9cb29d7c-1527-461f-b130-72eae1dd4cf7}, ! Handle
  Binghamton Ann Clg 1% Condns WB=>MDB,   ! Name
  25.9,                                   ! Maximum Dry-Bulb Temperature {C}
  9.7,                                    ! Daily Dry-Bulb Temperature Range {deltaC}
  21.7,                                   ! Humidity Indicating Conditions at Maximum Dry-Bulb {BasedOnField A3}
  95495,                                  ! Barometric Pressure {Pa}
  4.6,                                    ! Wind Speed {m/s}
  240,                                    ! Wind Direction {deg}
  0,                                      ! Sky Clearness
  0,                                      ! Rain Indicator
  0,                                      ! Snow Indicator
  21,                                     ! Day of Month
  7,                                      ! Month
  SummerDesignDay,                        ! Day Type
  0,                                      ! Daylight Saving Time Indicator
  Wetbulb,                                ! Humidity Indicating Type
  ,                                       ! Humidity Indicating Day Schedule Name
  DefaultMultipliers,                     ! Dry-Bulb Temperature Range Modifier Type
  ,                                       ! Dry-Bulb Temperature Range Modifier Schedule Name
  ASHRAETau,                              ! Solar Model Indicator
  ,                                       ! Beam Solar Day Schedule Name
  ,                                       ! Diffuse Solar Day Schedule Name
  0.452,                                  ! ASHRAE Taub {dimensionless}
  2.004;                                  ! ASHRAE Taud {dimensionless}

OS:ComponentData,
  {b9b5647e-c446-4a28-9b6e-87fafd1655d6}, ! Handle
  Component Data 1,                       ! Name
  {28875910-cdb1-451b-8cef-b91b83348e3c}, ! UUID
  {c918f72c-6d66-46b3-8401-db33e7eb6070}, ! Version UUID
  1366309589,                             ! Creation Timestamp
  1366309589,                             ! Version Timestamp
  {9cb29d7c-1527-461f-b130-72eae1dd4cf7}; ! Name of Object 1

