
OS:Version,
  {7c56f42d-9f62-429f-bc85-653cf5dca2a9}, ! Handle
  0.9.3;                                  ! Version Identifier

OS:SizingPeriod:DesignDay,
  {8b0b9bbb-cda3-46cd-90b3-3550dd7ce890}, ! Handle
  Colorado Springs Muni Ap Ann Clg 2% Condns WB=>MDB, ! Name
  24.7,                                   ! Maximum Dry-Bulb Temperature {C}
  14.5,                                   ! Daily Dry-Bulb Temperature Range {deltaC}
  16.2,                                   ! Humidity Indicating Conditions at Maximum Dry-Bulb {BasedOnField A3}
  80767,                                  ! Barometric Pressure {Pa}
  5.4,                                    ! Wind Speed {m/s}
  170,                                    ! Wind Direction {deg}
  0,                                      ! Sky Clearness
  0,                                      ! Rain Indicator
  0,                                      ! Snow Indicator
  21,                                     ! Day of Month
  7,                                      ! Month
  SummerDesignDay,                        ! Day Type
  0,                                      ! Daylight Saving Time Indicator
  Wetbulb,                                ! Humidity Indicating Type
  ,                                       ! Humidity Indicating Day Schedule Name
  DefaultMultipliers,                     ! Dry-Bulb Temperature Range Modifier Type
  ,                                       ! Dry-Bulb Temperature Range Modifier Schedule Name
  ASHRAETau,                              ! Solar Model Indicator
  ,                                       ! Beam Solar Day Schedule Name
  ,                                       ! Diffuse Solar Day Schedule Name
  0.408,                                  ! ASHRAE Taub {dimensionless}
  2.047;                                  ! ASHRAE Taud {dimensionless}

OS:ComponentData,
  {b776d81d-ce2a-4b70-a443-8f8d6de4b589}, ! Handle
  Component Data 1,                       ! Name
  {653c4425-7e3f-44be-a4ed-f304cf23dd70}, ! UUID
  {28c83882-d38f-4f21-aab3-10cc30c5481b}, ! Version UUID
  1366306664,                             ! Creation Timestamp
  1366306664,                             ! Version Timestamp
  {8b0b9bbb-cda3-46cd-90b3-3550dd7ce890}; ! Name of Object 1

