
OS:Version,
  {638b64c6-6c2c-4022-ae16-6c278c78033f}, ! Handle
  0.9.3;                                  ! Version Identifier

OS:SizingPeriod:DesignDay,
  {8df51d3c-418f-4707-8189-4c8973bfb038}, ! Handle
  Anchorage Merrill Field Ann Clg 2% Condns WB=>MDB, ! Name
  18.6,                                   ! Maximum Dry-Bulb Temperature {C}
  6.8,                                    ! Daily Dry-Bulb Temperature Range {deltaC}
  14.7,                                   ! Humidity Indicating Conditions at Maximum Dry-Bulb {BasedOnField A3}
  100821,                                 ! Barometric Pressure {Pa}
  2.8,                                    ! Wind Speed {m/s}
  270,                                    ! Wind Direction {deg}
  0,                                      ! Sky Clearness
  0,                                      ! Rain Indicator
  0,                                      ! Snow Indicator
  21,                                     ! Day of Month
  7,                                      ! Month
  SummerDesignDay,                        ! Day Type
  0,                                      ! Daylight Saving Time Indicator
  Wetbulb,                                ! Humidity Indicating Type
  ,                                       ! Humidity Indicating Day Schedule Name
  DefaultMultipliers,                     ! Dry-Bulb Temperature Range Modifier Type
  ,                                       ! Dry-Bulb Temperature Range Modifier Schedule Name
  ASHRAETau,                              ! Solar Model Indicator
  ,                                       ! Beam Solar Day Schedule Name
  ,                                       ! Diffuse Solar Day Schedule Name
  0.39,                                   ! ASHRAE Taub {dimensionless}
  2.155;                                  ! ASHRAE Taud {dimensionless}

OS:ComponentData,
  {f27f8673-f153-4bcd-a514-74a30e513e4a}, ! Handle
  Component Data 1,                       ! Name
  {c3116587-46a4-4260-89c3-63c4c7793200}, ! UUID
  {f7b0be1f-5412-4056-b38b-9830e97e65b6}, ! Version UUID
  1366304700,                             ! Creation Timestamp
  1366304700,                             ! Version Timestamp
  {8df51d3c-418f-4707-8189-4c8973bfb038}; ! Name of Object 1

