
OS:Version,
  {06673d12-f8c8-472b-9dcf-8bbc7e1a274f}, ! Handle
  0.9.3;                                  ! Version Identifier

OS:SizingPeriod:DesignDay,
  {59a53779-0454-41e3-b98c-82e45868d858}, ! Handle
  Elmira Corning Regional Ap Ann Clg 2% Condns Enth=>MDB, ! Name
  26.7,                                   ! Maximum Dry-Bulb Temperature {C}
  13,                                     ! Daily Dry-Bulb Temperature Range {deltaC}
  65700,                                  ! Humidity Indicating Conditions at Maximum Dry-Bulb {BasedOnField A3}
  97878,                                  ! Barometric Pressure {Pa}
  4.8,                                    ! Wind Speed {m/s}
  240,                                    ! Wind Direction {deg}
  0,                                      ! Sky Clearness
  0,                                      ! Rain Indicator
  0,                                      ! Snow Indicator
  21,                                     ! Day of Month
  7,                                      ! Month
  SummerDesignDay,                        ! Day Type
  0,                                      ! Daylight Saving Time Indicator
  Enthalpy,                               ! Humidity Indicating Type
  ,                                       ! Humidity Indicating Day Schedule Name
  DefaultMultipliers,                     ! Dry-Bulb Temperature Range Modifier Type
  ,                                       ! Dry-Bulb Temperature Range Modifier Schedule Name
  ASHRAETau,                              ! Solar Model Indicator
  ,                                       ! Beam Solar Day Schedule Name
  ,                                       ! Diffuse Solar Day Schedule Name
  0.471,                                  ! ASHRAE Taub {dimensionless}
  1.96;                                   ! ASHRAE Taud {dimensionless}

OS:ComponentData,
  {efdc1d67-3e01-4b76-9e10-df25f10b91a3}, ! Handle
  Component Data 1,                       ! Name
  {42a73c48-beba-49d6-b6dd-7b4108345b90}, ! UUID
  {63e58d58-0208-47f3-80e6-32f617f47bb4}, ! Version UUID
  1366309619,                             ! Creation Timestamp
  1366309619,                             ! Version Timestamp
  {59a53779-0454-41e3-b98c-82e45868d858}; ! Name of Object 1

