
OS:Version,
  {478f1c4b-b223-4693-85ee-6724799b1008}, ! Handle
  0.9.3;                                  ! Version Identifier

OS:SizingPeriod:DesignDay,
  {52d448a0-1caf-4af9-9bbd-3a460adf4e85}, ! Handle
  Crossville Memorial Ap Ann Clg .4% Condns WB=>MDB, ! Name
  28.8,                                   ! Maximum Dry-Bulb Temperature {C}
  10.1,                                   ! Daily Dry-Bulb Temperature Range {deltaC}
  24.1,                                   ! Humidity Indicating Conditions at Maximum Dry-Bulb {BasedOnField A3}
  94674,                                  ! Barometric Pressure {Pa}
  3.1,                                    ! Wind Speed {m/s}
  270,                                    ! Wind Direction {deg}
  0,                                      ! Sky Clearness
  0,                                      ! Rain Indicator
  0,                                      ! Snow Indicator
  21,                                     ! Day of Month
  7,                                      ! Month
  SummerDesignDay,                        ! Day Type
  0,                                      ! Daylight Saving Time Indicator
  Wetbulb,                                ! Humidity Indicating Type
  ,                                       ! Humidity Indicating Day Schedule Name
  DefaultMultipliers,                     ! Dry-Bulb Temperature Range Modifier Type
  ,                                       ! Dry-Bulb Temperature Range Modifier Schedule Name
  ASHRAETau,                              ! Solar Model Indicator
  ,                                       ! Beam Solar Day Schedule Name
  ,                                       ! Diffuse Solar Day Schedule Name
  0.507,                                  ! ASHRAE Taub {dimensionless}
  1.867;                                  ! ASHRAE Taud {dimensionless}

OS:ComponentData,
  {efa1621a-3c55-4ca2-a012-ac2804f1c7dc}, ! Handle
  Component Data 1,                       ! Name
  {609efd4e-bed3-43bd-b26d-4f1c4d3a7cc3}, ! UUID
  {010e7768-4a2f-4294-b277-15bc228d1b8f}, ! Version UUID
  1366310497,                             ! Creation Timestamp
  1366310497,                             ! Version Timestamp
  {52d448a0-1caf-4af9-9bbd-3a460adf4e85}; ! Name of Object 1

