
OS:Version,
  {c7de5c6a-8954-4207-ae7a-d58663320dd2}, ! Handle
  0.9.3;                                  ! Version Identifier

OS:SizingPeriod:DesignDay,
  {13a26d97-dfab-45ca-b071-4d83b9f7c7ef}, ! Handle
  CUT_BANK Ann Clg 2% Condns Enth=>MDB,   ! Name
  25.3,                                   ! Maximum Dry-Bulb Temperature {C}
  15.1,                                   ! Daily Dry-Bulb Temperature Range {deltaC}
  45600,                                  ! Humidity Indicating Conditions at Maximum Dry-Bulb {BasedOnField A3}
  88037,                                  ! Barometric Pressure {Pa}
  5.8,                                    ! Wind Speed {m/s}
  260,                                    ! Wind Direction {deg}
  0,                                      ! Sky Clearness
  0,                                      ! Rain Indicator
  0,                                      ! Snow Indicator
  21,                                     ! Day of Month
  7,                                      ! Month
  SummerDesignDay,                        ! Day Type
  0,                                      ! Daylight Saving Time Indicator
  Enthalpy,                               ! Humidity Indicating Type
  ,                                       ! Humidity Indicating Day Schedule Name
  DefaultMultipliers,                     ! Dry-Bulb Temperature Range Modifier Type
  ,                                       ! Dry-Bulb Temperature Range Modifier Schedule Name
  ASHRAETau,                              ! Solar Model Indicator
  ,                                       ! Beam Solar Day Schedule Name
  ,                                       ! Diffuse Solar Day Schedule Name
  0.368,                                  ! ASHRAE Taub {dimensionless}
  2.249;                                  ! ASHRAE Taud {dimensionless}

OS:ComponentData,
  {9cbe254b-aeb5-4c7d-b974-8fc63aec7e80}, ! Handle
  Component Data 1,                       ! Name
  {ccb7055d-e3c1-4931-87e8-1cffff259cf1}, ! UUID
  {28718d04-5145-4017-b1f1-35f6029362ea}, ! Version UUID
  1366308736,                             ! Creation Timestamp
  1366308736,                             ! Version Timestamp
  {13a26d97-dfab-45ca-b071-4d83b9f7c7ef}; ! Name of Object 1

