
OS:Version,
  {f659e040-2642-4d8d-927c-fbdc3c4c3d8a}, ! Handle
  0.9.3;                                  ! Version Identifier

OS:SizingPeriod:DesignDay,
  {a83d71e2-bd16-4617-8975-59e1b35240a4}, ! Handle
  Cape May Co Ann Clg 2% Condns DP=>MDB,  ! Name
  26.3,                                   ! Maximum Dry-Bulb Temperature {C}
  8.1,                                    ! Daily Dry-Bulb Temperature Range {deltaC}
  22.6,                                   ! Humidity Indicating Conditions at Maximum Dry-Bulb {BasedOnField A3}
  101241,                                 ! Barometric Pressure {Pa}
  4.4,                                    ! Wind Speed {m/s}
  240,                                    ! Wind Direction {deg}
  0,                                      ! Sky Clearness
  0,                                      ! Rain Indicator
  0,                                      ! Snow Indicator
  21,                                     ! Day of Month
  7,                                      ! Month
  SummerDesignDay,                        ! Day Type
  0,                                      ! Daylight Saving Time Indicator
  Dewpoint,                               ! Humidity Indicating Type
  ,                                       ! Humidity Indicating Day Schedule Name
  DefaultMultipliers,                     ! Dry-Bulb Temperature Range Modifier Type
  ,                                       ! Dry-Bulb Temperature Range Modifier Schedule Name
  ASHRAETau,                              ! Solar Model Indicator
  ,                                       ! Beam Solar Day Schedule Name
  ,                                       ! Diffuse Solar Day Schedule Name
  0.564,                                  ! ASHRAE Taub {dimensionless}
  1.76;                                   ! ASHRAE Taud {dimensionless}

OS:ComponentData,
  {3782191b-8a94-44fc-817b-8aa831ddc97e}, ! Handle
  Component Data 1,                       ! Name
  {1241818a-3080-467d-b79f-6f94d5b40b2c}, ! UUID
  {e79af341-288c-475c-91de-c8b5883716e1}, ! Version UUID
  1366309303,                             ! Creation Timestamp
  1366309303,                             ! Version Timestamp
  {a83d71e2-bd16-4617-8975-59e1b35240a4}; ! Name of Object 1

