
OS:Version,
  {5be993b3-f5c0-4e35-ac3d-dd4f4985bcad}, ! Handle
  0.9.3;                                  ! Version Identifier

OS:SizingPeriod:DesignDay,
  {eb4cbfc5-bdc1-4942-af0e-cd96c251b744}, ! Handle
  Blythe Riverside Co Arpt Ann Clg 1% Condns WB=>MDB, ! Name
  37.3,                                   ! Maximum Dry-Bulb Temperature {C}
  14.6,                                   ! Daily Dry-Bulb Temperature Range {deltaC}
  25.2,                                   ! Humidity Indicating Conditions at Maximum Dry-Bulb {BasedOnField A3}
  99904,                                  ! Barometric Pressure {Pa}
  4.8,                                    ! Wind Speed {m/s}
  170,                                    ! Wind Direction {deg}
  0,                                      ! Sky Clearness
  0,                                      ! Rain Indicator
  0,                                      ! Snow Indicator
  21,                                     ! Day of Month
  7,                                      ! Month
  SummerDesignDay,                        ! Day Type
  0,                                      ! Daylight Saving Time Indicator
  Wetbulb,                                ! Humidity Indicating Type
  ,                                       ! Humidity Indicating Day Schedule Name
  DefaultMultipliers,                     ! Dry-Bulb Temperature Range Modifier Type
  ,                                       ! Dry-Bulb Temperature Range Modifier Schedule Name
  ASHRAETau,                              ! Solar Model Indicator
  ,                                       ! Beam Solar Day Schedule Name
  ,                                       ! Diffuse Solar Day Schedule Name
  0.56,                                   ! ASHRAE Taub {dimensionless}
  1.707;                                  ! ASHRAE Taud {dimensionless}

OS:ComponentData,
  {b2f52055-e612-4535-bef7-1bdf06d3b589}, ! Handle
  Component Data 1,                       ! Name
  {33546f32-0e15-4b33-b9a8-109d5af09093}, ! UUID
  {b8807c41-9fe9-46c4-8874-6fe501665142}, ! Version UUID
  1366306389,                             ! Creation Timestamp
  1366306389,                             ! Version Timestamp
  {eb4cbfc5-bdc1-4942-af0e-cd96c251b744}; ! Name of Object 1

