
OS:Version,
  {5eedd1e0-af9a-48ba-b39f-0797fb63b114}, ! Handle
  0.9.3;                                  ! Version Identifier

OS:SizingPeriod:DesignDay,
  {2ccabc99-c1ac-4dbf-9d21-46fba2769377}, ! Handle
  Bangor International Ap Ann Clg 2% Condns WB=>MDB, ! Name
  25.2,                                   ! Maximum Dry-Bulb Temperature {C}
  11.3,                                   ! Daily Dry-Bulb Temperature Range {deltaC}
  20.8,                                   ! Humidity Indicating Conditions at Maximum Dry-Bulb {BasedOnField A3}
  100654,                                 ! Barometric Pressure {Pa}
  4.5,                                    ! Wind Speed {m/s}
  280,                                    ! Wind Direction {deg}
  0,                                      ! Sky Clearness
  0,                                      ! Rain Indicator
  0,                                      ! Snow Indicator
  21,                                     ! Day of Month
  7,                                      ! Month
  SummerDesignDay,                        ! Day Type
  0,                                      ! Daylight Saving Time Indicator
  Wetbulb,                                ! Humidity Indicating Type
  ,                                       ! Humidity Indicating Day Schedule Name
  DefaultMultipliers,                     ! Dry-Bulb Temperature Range Modifier Type
  ,                                       ! Dry-Bulb Temperature Range Modifier Schedule Name
  ASHRAETau,                              ! Solar Model Indicator
  ,                                       ! Beam Solar Day Schedule Name
  ,                                       ! Diffuse Solar Day Schedule Name
  0.458,                                  ! ASHRAE Taub {dimensionless}
  2.019;                                  ! ASHRAE Taud {dimensionless}

OS:ComponentData,
  {5b6eb555-bc23-4038-9fb2-d67b0b7db521}, ! Handle
  Component Data 1,                       ! Name
  {d8cd3c79-9d4d-4087-a111-74559f34f2f8}, ! UUID
  {d4a38358-0769-454d-93d9-60a335787280}, ! Version UUID
  1366307875,                             ! Creation Timestamp
  1366307875,                             ! Version Timestamp
  {2ccabc99-c1ac-4dbf-9d21-46fba2769377}; ! Name of Object 1

