
OS:Version,
  {9a00ebd6-c368-4294-94b6-a1b607e370a3}, ! Handle
  0.9.3;                                  ! Version Identifier

OS:SizingPeriod:DesignDay,
  {429e059d-5d3a-4746-8102-30bf1d28c198}, ! Handle
  Harrisburg Ann Clg 2% Condns DB=>MWB,   ! Name
  30.4,                                   ! Maximum Dry-Bulb Temperature {C}
  10.8,                                   ! Daily Dry-Bulb Temperature Range {deltaC}
  21.9,                                   ! Humidity Indicating Conditions at Maximum Dry-Bulb {BasedOnField A3}
  100201,                                 ! Barometric Pressure {Pa}
  3.8,                                    ! Wind Speed {m/s}
  300,                                    ! Wind Direction {deg}
  0,                                      ! Sky Clearness
  0,                                      ! Rain Indicator
  0,                                      ! Snow Indicator
  21,                                     ! Day of Month
  7,                                      ! Month
  SummerDesignDay,                        ! Day Type
  0,                                      ! Daylight Saving Time Indicator
  Wetbulb,                                ! Humidity Indicating Type
  ,                                       ! Humidity Indicating Day Schedule Name
  DefaultMultipliers,                     ! Dry-Bulb Temperature Range Modifier Type
  ,                                       ! Dry-Bulb Temperature Range Modifier Schedule Name
  ASHRAETau,                              ! Solar Model Indicator
  ,                                       ! Beam Solar Day Schedule Name
  ,                                       ! Diffuse Solar Day Schedule Name
  0.519,                                  ! ASHRAE Taub {dimensionless}
  1.838;                                  ! ASHRAE Taud {dimensionless}

OS:ComponentData,
  {900eb4f4-02bc-41e5-8390-6a6a30ff43f3}, ! Handle
  Component Data 1,                       ! Name
  {d5e1e6d4-3081-468b-b866-9897d090f138}, ! UUID
  {3113168b-0d11-4192-b367-a05ec3e6377d}, ! Version UUID
  1366310183,                             ! Creation Timestamp
  1366310183,                             ! Version Timestamp
  {429e059d-5d3a-4746-8102-30bf1d28c198}; ! Name of Object 1

