
OS:Version,
  {e418bea1-a376-4179-b925-623b6970960d}, ! Handle
  0.9.3;                                  ! Version Identifier

OS:SizingPeriod:DesignDay,
  {4827671f-f84f-4c09-839e-07a87194ec3a}, ! Handle
  Beatrice Municipal Ann Hum_n 99.6% Condns DP=>MCDB, ! Name
  -18.2,                                  ! Maximum Dry-Bulb Temperature {C}
  0,                                      ! Daily Dry-Bulb Temperature Range {deltaC}
  -23.7,                                  ! Humidity Indicating Conditions at Maximum Dry-Bulb {BasedOnField A3}
  96576,                                  ! Barometric Pressure {Pa}
  3.7,                                    ! Wind Speed {m/s}
  10,                                     ! Wind Direction {deg}
  0,                                      ! Sky Clearness
  0,                                      ! Rain Indicator
  0,                                      ! Snow Indicator
  21,                                     ! Day of Month
  1,                                      ! Month
  WinterDesignDay,                        ! Day Type
  0,                                      ! Daylight Saving Time Indicator
  Dewpoint,                               ! Humidity Indicating Type
  ,                                       ! Humidity Indicating Day Schedule Name
  DefaultMultipliers,                     ! Dry-Bulb Temperature Range Modifier Type
  ,                                       ! Dry-Bulb Temperature Range Modifier Schedule Name
  ASHRAEClearSky;                         ! Solar Model Indicator

OS:ComponentData,
  {7f0fd73e-3d8b-4572-9ecf-7d8bc001f746}, ! Handle
  Component Data 1,                       ! Name
  {9cb6a748-b14b-481c-bc65-bc52b3c8ce28}, ! UUID
  {fbffdfcc-5fa6-4cbb-81da-f5de85f55f2d}, ! Version UUID
  1366309085,                             ! Creation Timestamp
  1366309085,                             ! Version Timestamp
  {4827671f-f84f-4c09-839e-07a87194ec3a}; ! Name of Object 1

