
OS:Version,
  {aaf1f3f1-ca8b-4faf-a636-eba63cc1aa0e}, ! Handle
  0.9.3;                                  ! Version Identifier

OS:SizingPeriod:DesignDay,
  {d5a87d26-eaba-4c62-8cc7-212ccf6a2b03}, ! Handle
  HONOLULU Ann Clg .4% Condns WB=>MDB,    ! Name
  29.3,                                   ! Maximum Dry-Bulb Temperature {C}
  7.1,                                    ! Daily Dry-Bulb Temperature Range {deltaC}
  25.1,                                   ! Humidity Indicating Conditions at Maximum Dry-Bulb {BasedOnField A3}
  101265,                                 ! Barometric Pressure {Pa}
  6.7,                                    ! Wind Speed {m/s}
  60,                                     ! Wind Direction {deg}
  0,                                      ! Sky Clearness
  0,                                      ! Rain Indicator
  0,                                      ! Snow Indicator
  21,                                     ! Day of Month
  8,                                      ! Month
  SummerDesignDay,                        ! Day Type
  0,                                      ! Daylight Saving Time Indicator
  Wetbulb,                                ! Humidity Indicating Type
  ,                                       ! Humidity Indicating Day Schedule Name
  DefaultMultipliers,                     ! Dry-Bulb Temperature Range Modifier Type
  ,                                       ! Dry-Bulb Temperature Range Modifier Schedule Name
  ASHRAETau,                              ! Solar Model Indicator
  ,                                       ! Beam Solar Day Schedule Name
  ,                                       ! Diffuse Solar Day Schedule Name
  0.382,                                  ! ASHRAE Taub {dimensionless}
  2.521;                                  ! ASHRAE Taud {dimensionless}

OS:ComponentData,
  {3060bcd1-bae5-4fae-9070-024d267f3058}, ! Handle
  Component Data 1,                       ! Name
  {8d6713f6-2098-4918-9b5e-f227c9f05554}, ! UUID
  {1722df54-a685-4f81-897e-b6f6cec96c5a}, ! Version UUID
  1366307087,                             ! Creation Timestamp
  1366307087,                             ! Version Timestamp
  {d5a87d26-eaba-4c62-8cc7-212ccf6a2b03}; ! Name of Object 1

