
OS:Version,
  {a32a0293-a3a6-45ad-abfc-f679d62717b7}, ! Handle
  0.9.3;                                  ! Version Identifier

OS:SizingPeriod:DesignDay,
  {5586e00a-ec3d-4f46-b3f3-a1a10eacf3cb}, ! Handle
  El Dorado Goodwin Field Ann Htg Wind 99% Condns WS=>MCDB, ! Name
  15,                                     ! Maximum Dry-Bulb Temperature {C}
  0,                                      ! Daily Dry-Bulb Temperature Range {deltaC}
  15,                                     ! Humidity Indicating Conditions at Maximum Dry-Bulb {BasedOnField A3}
  100403,                                 ! Barometric Pressure {Pa}
  7.9,                                    ! Wind Speed {m/s}
  20,                                     ! Wind Direction {deg}
  0,                                      ! Sky Clearness
  0,                                      ! Rain Indicator
  0,                                      ! Snow Indicator
  21,                                     ! Day of Month
  1,                                      ! Month
  WinterDesignDay,                        ! Day Type
  0,                                      ! Daylight Saving Time Indicator
  Wetbulb,                                ! Humidity Indicating Type
  ,                                       ! Humidity Indicating Day Schedule Name
  DefaultMultipliers,                     ! Dry-Bulb Temperature Range Modifier Type
  ,                                       ! Dry-Bulb Temperature Range Modifier Schedule Name
  ASHRAEClearSky;                         ! Solar Model Indicator

OS:ComponentData,
  {eefcc07a-0aca-488f-892b-6c3a32545e24}, ! Handle
  Component Data 1,                       ! Name
  {8bab5d8c-201e-450b-ae56-fb24c62cacaf}, ! UUID
  {b42ae386-7358-43db-b9ac-2f68722bce8f}, ! Version UUID
  1366306197,                             ! Creation Timestamp
  1366306197,                             ! Version Timestamp
  {5586e00a-ec3d-4f46-b3f3-a1a10eacf3cb}; ! Name of Object 1

