
OS:Version,
  {dc30c5f1-6f4e-4be9-bc88-7295b8646943}, ! Handle
  0.9.3;                                  ! Version Identifier

OS:SizingPeriod:DesignDay,
  {f22a5285-12fb-403d-be6d-3be0f68cee52}, ! Handle
  Alamosa San Luis Valley Rgnl Ann Clg 2% Condns DB=>MWB, ! Name
  26.9,                                   ! Maximum Dry-Bulb Temperature {C}
  18.7,                                   ! Daily Dry-Bulb Temperature Range {deltaC}
  12.5,                                   ! Humidity Indicating Conditions at Maximum Dry-Bulb {BasedOnField A3}
  76617,                                  ! Barometric Pressure {Pa}
  5,                                      ! Wind Speed {m/s}
  240,                                    ! Wind Direction {deg}
  0,                                      ! Sky Clearness
  0,                                      ! Rain Indicator
  0,                                      ! Snow Indicator
  21,                                     ! Day of Month
  7,                                      ! Month
  SummerDesignDay,                        ! Day Type
  0,                                      ! Daylight Saving Time Indicator
  Wetbulb,                                ! Humidity Indicating Type
  ,                                       ! Humidity Indicating Day Schedule Name
  DefaultMultipliers,                     ! Dry-Bulb Temperature Range Modifier Type
  ,                                       ! Dry-Bulb Temperature Range Modifier Schedule Name
  ASHRAETau,                              ! Solar Model Indicator
  ,                                       ! Beam Solar Day Schedule Name
  ,                                       ! Diffuse Solar Day Schedule Name
  0.422,                                  ! ASHRAE Taub {dimensionless}
  2;                                      ! ASHRAE Taud {dimensionless}

OS:ComponentData,
  {27828a8a-e0d6-4e33-aa78-4ca6b090c439}, ! Handle
  Component Data 1,                       ! Name
  {978a6634-a502-44c9-b69c-0420964e01a8}, ! UUID
  {fed09d3f-335c-4f99-8277-a8d478661479}, ! Version UUID
  1366306647,                             ! Creation Timestamp
  1366306647,                             ! Version Timestamp
  {f22a5285-12fb-403d-be6d-3be0f68cee52}; ! Name of Object 1

