
OS:Version,
  {62cda65f-6263-4965-aa0f-7f1d6996f7d6}, ! Handle
  0.9.3;                                  ! Version Identifier

OS:SizingPeriod:DesignDay,
  {cc9b5903-f514-47e2-9750-3fa8584de4af}, ! Handle
  Ketchikan Intl Ap Ann Htg 99.6% Condns DB, ! Name
  -10.8,                                  ! Maximum Dry-Bulb Temperature {C}
  0,                                      ! Daily Dry-Bulb Temperature Range {deltaC}
  -10.8,                                  ! Humidity Indicating Conditions at Maximum Dry-Bulb {BasedOnField A3}
  101049,                                 ! Barometric Pressure {Pa}
  2.1,                                    ! Wind Speed {m/s}
  290,                                    ! Wind Direction {deg}
  0,                                      ! Sky Clearness
  0,                                      ! Rain Indicator
  0,                                      ! Snow Indicator
  21,                                     ! Day of Month
  1,                                      ! Month
  WinterDesignDay,                        ! Day Type
  0,                                      ! Daylight Saving Time Indicator
  Wetbulb,                                ! Humidity Indicating Type
  ,                                       ! Humidity Indicating Day Schedule Name
  DefaultMultipliers,                     ! Dry-Bulb Temperature Range Modifier Type
  ,                                       ! Dry-Bulb Temperature Range Modifier Schedule Name
  ASHRAEClearSky;                         ! Solar Model Indicator

OS:ComponentData,
  {7ffd24ae-0458-4da6-a509-3ff5db7a7e59}, ! Handle
  Component Data 1,                       ! Name
  {ff69cf31-bb05-4c67-9466-cac221b79614}, ! UUID
  {e2e636ea-edf6-4caf-9693-00632b96c3cc}, ! Version UUID
  1366305352,                             ! Creation Timestamp
  1366305352,                             ! Version Timestamp
  {cc9b5903-f514-47e2-9750-3fa8584de4af}; ! Name of Object 1

