
OS:Version,
  {64897ff8-b462-4a1f-8224-a74f0342e86b}, ! Handle
  0.9.3;                                  ! Version Identifier

OS:SizingPeriod:DesignDay,
  {974154d6-8315-4f6f-a73f-42b561153b40}, ! Handle
  Concord Municipal Arpt Ann Clg 1% Condns WB=>MDB, ! Name
  27.8,                                   ! Maximum Dry-Bulb Temperature {C}
  12.8,                                   ! Daily Dry-Bulb Temperature Range {deltaC}
  22.7,                                   ! Humidity Indicating Conditions at Maximum Dry-Bulb {BasedOnField A3}
  100058,                                 ! Barometric Pressure {Pa}
  4.4,                                    ! Wind Speed {m/s}
  230,                                    ! Wind Direction {deg}
  0,                                      ! Sky Clearness
  0,                                      ! Rain Indicator
  0,                                      ! Snow Indicator
  21,                                     ! Day of Month
  7,                                      ! Month
  SummerDesignDay,                        ! Day Type
  0,                                      ! Daylight Saving Time Indicator
  Wetbulb,                                ! Humidity Indicating Type
  ,                                       ! Humidity Indicating Day Schedule Name
  DefaultMultipliers,                     ! Dry-Bulb Temperature Range Modifier Type
  ,                                       ! Dry-Bulb Temperature Range Modifier Schedule Name
  ASHRAETau,                              ! Solar Model Indicator
  ,                                       ! Beam Solar Day Schedule Name
  ,                                       ! Diffuse Solar Day Schedule Name
  0.459,                                  ! ASHRAE Taub {dimensionless}
  2.014;                                  ! ASHRAE Taud {dimensionless}

OS:ComponentData,
  {54430851-d847-4213-9040-55cf58226149}, ! Handle
  Component Data 1,                       ! Name
  {9c8f35b9-9424-4476-b04e-073975637992}, ! UUID
  {fb799335-97a7-4dc4-9210-77b1463fb541}, ! Version UUID
  1366309231,                             ! Creation Timestamp
  1366309231,                             ! Version Timestamp
  {974154d6-8315-4f6f-a73f-42b561153b40}; ! Name of Object 1

