
OS:Version,
  {a6870c7c-738f-40a8-9814-5b775a279198}, ! Handle
  0.9.3;                                  ! Version Identifier

OS:SizingPeriod:DesignDay,
  {09df36b2-4761-45d4-be72-c9b229524ec1}, ! Handle
  ASHEVILLE Ann Htg 99.6% Condns DB,      ! Name
  -10.2,                                  ! Maximum Dry-Bulb Temperature {C}
  0,                                      ! Daily Dry-Bulb Temperature Range {deltaC}
  -10.2,                                  ! Humidity Indicating Conditions at Maximum Dry-Bulb {BasedOnField A3}
  93632,                                  ! Barometric Pressure {Pa}
  5.4,                                    ! Wind Speed {m/s}
  340,                                    ! Wind Direction {deg}
  0,                                      ! Sky Clearness
  0,                                      ! Rain Indicator
  0,                                      ! Snow Indicator
  21,                                     ! Day of Month
  1,                                      ! Month
  WinterDesignDay,                        ! Day Type
  0,                                      ! Daylight Saving Time Indicator
  Wetbulb,                                ! Humidity Indicating Type
  ,                                       ! Humidity Indicating Day Schedule Name
  DefaultMultipliers,                     ! Dry-Bulb Temperature Range Modifier Type
  ,                                       ! Dry-Bulb Temperature Range Modifier Schedule Name
  ASHRAEClearSky;                         ! Solar Model Indicator

OS:ComponentData,
  {08ca8403-346e-486f-887e-e603a418d14d}, ! Handle
  Component Data 1,                       ! Name
  {4a2ae464-baac-4cab-9cfe-e676e75e840a}, ! UUID
  {fcac09a9-70f7-470b-8905-fee388712367}, ! Version UUID
  1366308858,                             ! Creation Timestamp
  1366308858,                             ! Version Timestamp
  {09df36b2-4761-45d4-be72-c9b229524ec1}; ! Name of Object 1

