
OS:Version,
  {0c230e91-a869-419e-be40-2c20c45b01da}, ! Handle
  0.9.3;                                  ! Version Identifier

OS:SizingPeriod:DesignDay,
  {93b22a49-f0df-4921-bd78-3c59fe7b5ccd}, ! Handle
  Chariton Ann Clg 2% Condns WB=>MDB,     ! Name
  30.1,                                   ! Maximum Dry-Bulb Temperature {C}
  10.3,                                   ! Daily Dry-Bulb Temperature Range {deltaC}
  25.5,                                   ! Humidity Indicating Conditions at Maximum Dry-Bulb {BasedOnField A3}
  97539,                                  ! Barometric Pressure {Pa}
  4.5,                                    ! Wind Speed {m/s}
  200,                                    ! Wind Direction {deg}
  0,                                      ! Sky Clearness
  0,                                      ! Rain Indicator
  0,                                      ! Snow Indicator
  21,                                     ! Day of Month
  7,                                      ! Month
  SummerDesignDay,                        ! Day Type
  0,                                      ! Daylight Saving Time Indicator
  Wetbulb,                                ! Humidity Indicating Type
  ,                                       ! Humidity Indicating Day Schedule Name
  DefaultMultipliers,                     ! Dry-Bulb Temperature Range Modifier Type
  ,                                       ! Dry-Bulb Temperature Range Modifier Schedule Name
  ASHRAETau,                              ! Solar Model Indicator
  ,                                       ! Beam Solar Day Schedule Name
  ,                                       ! Diffuse Solar Day Schedule Name
  0.431,                                  ! ASHRAE Taub {dimensionless}
  2.145;                                  ! ASHRAE Taud {dimensionless}

OS:ComponentData,
  {c97c7bcc-982c-4336-9f70-276109e9aed9}, ! Handle
  Component Data 1,                       ! Name
  {41e7acc8-93ce-4fc7-9988-67eaa18807b7}, ! UUID
  {f3f8a1bf-623b-45ef-884b-82c965107441}, ! Version UUID
  1366307152,                             ! Creation Timestamp
  1366307152,                             ! Version Timestamp
  {93b22a49-f0df-4921-bd78-3c59fe7b5ccd}; ! Name of Object 1

