
OS:Version,
  {dc823ddb-2600-447b-b034-4de01b4abce3}, ! Handle
  0.9.3;                                  ! Version Identifier

OS:SizingPeriod:DesignDay,
  {b8f099a9-8b90-4b51-bb41-1fce8cb90251}, ! Handle
  Lake Hood Seaplane Ann Htg Wind 99.6% Condns WS=>MCDB, ! Name
  -8.6,                                   ! Maximum Dry-Bulb Temperature {C}
  0,                                      ! Daily Dry-Bulb Temperature Range {deltaC}
  -8.6,                                   ! Humidity Indicating Conditions at Maximum Dry-Bulb {BasedOnField A3}
  101061,                                 ! Barometric Pressure {Pa}
  9.4,                                    ! Wind Speed {m/s}
  350,                                    ! Wind Direction {deg}
  0,                                      ! Sky Clearness
  0,                                      ! Rain Indicator
  0,                                      ! Snow Indicator
  21,                                     ! Day of Month
  1,                                      ! Month
  WinterDesignDay,                        ! Day Type
  0,                                      ! Daylight Saving Time Indicator
  Wetbulb,                                ! Humidity Indicating Type
  ,                                       ! Humidity Indicating Day Schedule Name
  DefaultMultipliers,                     ! Dry-Bulb Temperature Range Modifier Type
  ,                                       ! Dry-Bulb Temperature Range Modifier Schedule Name
  ASHRAEClearSky;                         ! Solar Model Indicator

OS:ComponentData,
  {bd6b8775-cf95-4bff-aade-e9e5049ede61}, ! Handle
  Component Data 1,                       ! Name
  {c812f6e5-9b5a-4b1b-9900-32e66a9f6284}, ! UUID
  {59cbae74-010f-454d-b2e9-5edc3b3237a9}, ! Version UUID
  1366304695,                             ! Creation Timestamp
  1366304695,                             ! Version Timestamp
  {b8f099a9-8b90-4b51-bb41-1fce8cb90251}; ! Name of Object 1

