
OS:Version,
  {e75e5073-ce5a-44e9-88a2-061b2db0b05d}, ! Handle
  0.9.3;                                  ! Version Identifier

OS:SizingPeriod:DesignDay,
  {d0c43601-1431-48d7-b7e1-8aa1edc36434}, ! Handle
  Auburn Lewiston Ann Hum_n 99% Condns DP=>MCDB, ! Name
  -16.8,                                  ! Maximum Dry-Bulb Temperature {C}
  0,                                      ! Daily Dry-Bulb Temperature Range {deltaC}
  -26.9,                                  ! Humidity Indicating Conditions at Maximum Dry-Bulb {BasedOnField A3}
  100272,                                 ! Barometric Pressure {Pa}
  1.7,                                    ! Wind Speed {m/s}
  0,                                      ! Wind Direction {deg}
  0,                                      ! Sky Clearness
  0,                                      ! Rain Indicator
  0,                                      ! Snow Indicator
  21,                                     ! Day of Month
  1,                                      ! Month
  WinterDesignDay,                        ! Day Type
  0,                                      ! Daylight Saving Time Indicator
  Dewpoint,                               ! Humidity Indicating Type
  ,                                       ! Humidity Indicating Day Schedule Name
  DefaultMultipliers,                     ! Dry-Bulb Temperature Range Modifier Type
  ,                                       ! Dry-Bulb Temperature Range Modifier Schedule Name
  ASHRAEClearSky;                         ! Solar Model Indicator

OS:ComponentData,
  {956f25a5-a9ef-4026-a9c4-91b96eab3b46}, ! Handle
  Component Data 1,                       ! Name
  {5816392c-cb4a-43bc-9b3c-db7ffe6537c3}, ! UUID
  {332445bf-cfe4-43c0-a927-e4ea622e49c3}, ! Version UUID
  1366307864,                             ! Creation Timestamp
  1366307864,                             ! Version Timestamp
  {d0c43601-1431-48d7-b7e1-8aa1edc36434}; ! Name of Object 1

