
OS:Version,
  {952d57f9-073b-4b6a-ab8b-60776c12ce3c}, ! Handle
  0.9.3;                                  ! Version Identifier

OS:SizingPeriod:DesignDay,
  {134ba923-cf09-44b0-8343-d9f5d676cae2}, ! Handle
  Butte Bert Mooney Arpt Ann Htg 99.6% Condns DB, ! Name
  -29.1,                                  ! Maximum Dry-Bulb Temperature {C}
  0,                                      ! Daily Dry-Bulb Temperature Range {deltaC}
  -29.1,                                  ! Humidity Indicating Conditions at Maximum Dry-Bulb {BasedOnField A3}
  82613,                                  ! Barometric Pressure {Pa}
  1.3,                                    ! Wind Speed {m/s}
  180,                                    ! Wind Direction {deg}
  0,                                      ! Sky Clearness
  0,                                      ! Rain Indicator
  0,                                      ! Snow Indicator
  21,                                     ! Day of Month
  12,                                     ! Month
  WinterDesignDay,                        ! Day Type
  0,                                      ! Daylight Saving Time Indicator
  Wetbulb,                                ! Humidity Indicating Type
  ,                                       ! Humidity Indicating Day Schedule Name
  DefaultMultipliers,                     ! Dry-Bulb Temperature Range Modifier Type
  ,                                       ! Dry-Bulb Temperature Range Modifier Schedule Name
  ASHRAEClearSky;                         ! Solar Model Indicator

OS:ComponentData,
  {865323b2-2f71-48a6-b19b-b89730a2bcc5}, ! Handle
  Component Data 1,                       ! Name
  {d247762e-978a-4ba6-9150-93da38cac0d1}, ! UUID
  {2b97a906-5778-47f1-b3e1-f0efb9ea3142}, ! Version UUID
  1366308723,                             ! Creation Timestamp
  1366308723,                             ! Version Timestamp
  {134ba923-cf09-44b0-8343-d9f5d676cae2}; ! Name of Object 1

