
OS:Version,
  {80fdd56d-9648-4b08-b181-e49e21fe7574}, ! Handle
  0.9.3;                                  ! Version Identifier

OS:SizingPeriod:DesignDay,
  {f97b0157-5859-4d21-bb91-e0000cf4dc80}, ! Handle
  Brewster Field Arpt Ann Htg 99.6% Condns DB, ! Name
  -17.6,                                  ! Maximum Dry-Bulb Temperature {C}
  0,                                      ! Daily Dry-Bulb Temperature Range {deltaC}
  -17.6,                                  ! Humidity Indicating Conditions at Maximum Dry-Bulb {BasedOnField A3}
  93149,                                  ! Barometric Pressure {Pa}
  3.9,                                    ! Wind Speed {m/s}
  350,                                    ! Wind Direction {deg}
  0,                                      ! Sky Clearness
  0,                                      ! Rain Indicator
  0,                                      ! Snow Indicator
  21,                                     ! Day of Month
  1,                                      ! Month
  WinterDesignDay,                        ! Day Type
  0,                                      ! Daylight Saving Time Indicator
  Wetbulb,                                ! Humidity Indicating Type
  ,                                       ! Humidity Indicating Day Schedule Name
  DefaultMultipliers,                     ! Dry-Bulb Temperature Range Modifier Type
  ,                                       ! Dry-Bulb Temperature Range Modifier Schedule Name
  ASHRAEClearSky;                         ! Solar Model Indicator

