
OS:Version,
  {a66468bb-817f-40b2-afab-0a0284ebfb1b}, ! Handle
  0.9.3;                                  ! Version Identifier

OS:SizingPeriod:DesignDay,
  {926e4b16-784b-4b8f-9ecc-9c09a624cd3a}, ! Handle
  Dubois Faa Ap Ann Clg 2% Condns WB=>MDB, ! Name
  24.9,                                   ! Maximum Dry-Bulb Temperature {C}
  10.4,                                   ! Daily Dry-Bulb Temperature Range {deltaC}
  20.9,                                   ! Humidity Indicating Conditions at Maximum Dry-Bulb {BasedOnField A3}
  94856,                                  ! Barometric Pressure {Pa}
  4.4,                                    ! Wind Speed {m/s}
  250,                                    ! Wind Direction {deg}
  0,                                      ! Sky Clearness
  0,                                      ! Rain Indicator
  0,                                      ! Snow Indicator
  21,                                     ! Day of Month
  7,                                      ! Month
  SummerDesignDay,                        ! Day Type
  0,                                      ! Daylight Saving Time Indicator
  Wetbulb,                                ! Humidity Indicating Type
  ,                                       ! Humidity Indicating Day Schedule Name
  DefaultMultipliers,                     ! Dry-Bulb Temperature Range Modifier Type
  ,                                       ! Dry-Bulb Temperature Range Modifier Schedule Name
  ASHRAETau,                              ! Solar Model Indicator
  ,                                       ! Beam Solar Day Schedule Name
  ,                                       ! Diffuse Solar Day Schedule Name
  0.441,                                  ! ASHRAE Taub {dimensionless}
  2.051;                                  ! ASHRAE Taud {dimensionless}

OS:ComponentData,
  {7d679576-d3e1-4360-bd1a-283a83090dca}, ! Handle
  Component Data 1,                       ! Name
  {c67aa8f0-9a51-4fe4-ae95-dd3965e77768}, ! UUID
  {512355b0-4705-4aa7-8451-d01f8d740cd6}, ! Version UUID
  1366310160,                             ! Creation Timestamp
  1366310160,                             ! Version Timestamp
  {926e4b16-784b-4b8f-9ecc-9c09a624cd3a}; ! Name of Object 1

