
OS:Version,
  {fb526a82-3b0b-4a0f-8b91-21f34d76b9ca}, ! Handle
  0.9.3;                                  ! Version Identifier

OS:SizingPeriod:DesignDay,
  {dca90630-b744-4bfa-ba53-38123139bc61}, ! Handle
  Adak Nas Ann Clg 1% Condns DB=>MWB,     ! Name
  14,                                     ! Maximum Dry-Bulb Temperature {C}
  4.9,                                    ! Daily Dry-Bulb Temperature Range {deltaC}
  11.5,                                   ! Humidity Indicating Conditions at Maximum Dry-Bulb {BasedOnField A3}
  101265,                                 ! Barometric Pressure {Pa}
  4.9,                                    ! Wind Speed {m/s}
  180,                                    ! Wind Direction {deg}
  0,                                      ! Sky Clearness
  0,                                      ! Rain Indicator
  0,                                      ! Snow Indicator
  21,                                     ! Day of Month
  8,                                      ! Month
  SummerDesignDay,                        ! Day Type
  0,                                      ! Daylight Saving Time Indicator
  Wetbulb,                                ! Humidity Indicating Type
  ,                                       ! Humidity Indicating Day Schedule Name
  DefaultMultipliers,                     ! Dry-Bulb Temperature Range Modifier Type
  ,                                       ! Dry-Bulb Temperature Range Modifier Schedule Name
  ASHRAETau,                              ! Solar Model Indicator
  ,                                       ! Beam Solar Day Schedule Name
  ,                                       ! Diffuse Solar Day Schedule Name
  0.394,                                  ! ASHRAE Taub {dimensionless}
  2.21;                                   ! ASHRAE Taud {dimensionless}

OS:ComponentData,
  {0e790b90-d832-4489-afd6-6fc01a0cf3bf}, ! Handle
  Component Data 1,                       ! Name
  {7982a8f0-e15c-450f-8a23-70249299fea9}, ! UUID
  {e6727109-f8b8-47b9-9bcc-857b4a3932e9}, ! Version UUID
  1364004396,                             ! Creation Timestamp
  1364004396,                             ! Version Timestamp
  {dca90630-b744-4bfa-ba53-38123139bc61}; ! Name of Object 1

