
OS:Version,
  {918bf7cf-80c7-426e-801f-70f6b7744228}, ! Handle
  0.9.3;                                  ! Version Identifier

OS:SizingPeriod:DesignDay,
  {b739110c-6bff-4a99-9149-b63599d7bfc5}, ! Handle
  FARGO Ann Clg 2% Condns Enth=>MDB,      ! Name
  27.6,                                   ! Maximum Dry-Bulb Temperature {C}
  11.8,                                   ! Daily Dry-Bulb Temperature Range {deltaC}
  65400,                                  ! Humidity Indicating Conditions at Maximum Dry-Bulb {BasedOnField A3}
  98076,                                  ! Barometric Pressure {Pa}
  6.5,                                    ! Wind Speed {m/s}
  170,                                    ! Wind Direction {deg}
  0,                                      ! Sky Clearness
  0,                                      ! Rain Indicator
  0,                                      ! Snow Indicator
  21,                                     ! Day of Month
  7,                                      ! Month
  SummerDesignDay,                        ! Day Type
  0,                                      ! Daylight Saving Time Indicator
  Enthalpy,                               ! Humidity Indicating Type
  ,                                       ! Humidity Indicating Day Schedule Name
  DefaultMultipliers,                     ! Dry-Bulb Temperature Range Modifier Type
  ,                                       ! Dry-Bulb Temperature Range Modifier Schedule Name
  ASHRAETau,                              ! Solar Model Indicator
  ,                                       ! Beam Solar Day Schedule Name
  ,                                       ! Diffuse Solar Day Schedule Name
  0.396,                                  ! ASHRAE Taub {dimensionless}
  2.253;                                  ! ASHRAE Taud {dimensionless}

OS:ComponentData,
  {622840e7-182e-44b3-ab4c-26cd30cca425}, ! Handle
  Component Data 1,                       ! Name
  {1dfd7b52-825c-4a92-8cae-adcd4b682b47}, ! UUID
  {b4553aa0-56d3-4158-8e3f-2ae93b2228fb}, ! Version UUID
  1366309039,                             ! Creation Timestamp
  1366309039,                             ! Version Timestamp
  {b739110c-6bff-4a99-9149-b63599d7bfc5}; ! Name of Object 1

