
OS:Version,
  {a098c692-40f5-4d1a-bebe-93fbf52462a3}, ! Handle
  0.9.3;                                  ! Version Identifier

OS:SizingPeriod:DesignDay,
  {025af80b-6f80-4dad-9b19-1dcf6ca02389}, ! Handle
  AUGUSTA Ann Hum_n 99.6% Condns DP=>MCDB, ! Name
  1.7,                                    ! Maximum Dry-Bulb Temperature {C}
  0,                                      ! Daily Dry-Bulb Temperature Range {deltaC}
  -14.1,                                  ! Humidity Indicating Conditions at Maximum Dry-Bulb {BasedOnField A3}
  100786,                                 ! Barometric Pressure {Pa}
  1.5,                                    ! Wind Speed {m/s}
  300,                                    ! Wind Direction {deg}
  0,                                      ! Sky Clearness
  0,                                      ! Rain Indicator
  0,                                      ! Snow Indicator
  21,                                     ! Day of Month
  1,                                      ! Month
  WinterDesignDay,                        ! Day Type
  0,                                      ! Daylight Saving Time Indicator
  Dewpoint,                               ! Humidity Indicating Type
  ,                                       ! Humidity Indicating Day Schedule Name
  DefaultMultipliers,                     ! Dry-Bulb Temperature Range Modifier Type
  ,                                       ! Dry-Bulb Temperature Range Modifier Schedule Name
  ASHRAEClearSky;                         ! Solar Model Indicator

OS:ComponentData,
  {9d9bc035-2d53-449a-ad64-303559a57336}, ! Handle
  Component Data 1,                       ! Name
  {5a123896-31ed-4944-aa31-eb0ef7859066}, ! UUID
  {3d8d08be-87d9-4126-8d29-66bca16d1f27}, ! Version UUID
  1366306991,                             ! Creation Timestamp
  1366306991,                             ! Version Timestamp
  {025af80b-6f80-4dad-9b19-1dcf6ca02389}; ! Name of Object 1

