
OS:Version,
  {2f7e243a-3dfb-4c4e-a595-e6a4372c1de3}, ! Handle
  0.9.3;                                  ! Version Identifier

OS:SizingPeriod:DesignDay,
  {71cdc98e-0cbc-40aa-98d6-b3a8c6e94e25}, ! Handle
  Fremont Muni Arpt Ann Hum_n 99.6% Condns DP=>MCDB, ! Name
  -18.1,                                  ! Maximum Dry-Bulb Temperature {C}
  0,                                      ! Daily Dry-Bulb Temperature Range {deltaC}
  -23,                                    ! Humidity Indicating Conditions at Maximum Dry-Bulb {BasedOnField A3}
  96854,                                  ! Barometric Pressure {Pa}
  3.6,                                    ! Wind Speed {m/s}
  310,                                    ! Wind Direction {deg}
  0,                                      ! Sky Clearness
  0,                                      ! Rain Indicator
  0,                                      ! Snow Indicator
  21,                                     ! Day of Month
  1,                                      ! Month
  WinterDesignDay,                        ! Day Type
  0,                                      ! Daylight Saving Time Indicator
  Dewpoint,                               ! Humidity Indicating Type
  ,                                       ! Humidity Indicating Day Schedule Name
  DefaultMultipliers,                     ! Dry-Bulb Temperature Range Modifier Type
  ,                                       ! Dry-Bulb Temperature Range Modifier Schedule Name
  ASHRAEClearSky;                         ! Solar Model Indicator

OS:ComponentData,
  {70757ac8-f8e2-470a-b3c3-85637d202b85}, ! Handle
  Component Data 1,                       ! Name
  {64235ee8-3ab6-4ee6-8bcd-f45ef560e6ce}, ! UUID
  {b2987727-9e8d-46e0-8a82-7f3dd60ddedf}, ! Version UUID
  1366309103,                             ! Creation Timestamp
  1366309103,                             ! Version Timestamp
  {71cdc98e-0cbc-40aa-98d6-b3a8c6e94e25}; ! Name of Object 1

