
OS:Version,
  {fbfde4eb-44aa-41ea-b142-aba53f4b1445}, ! Handle
  0.9.3;                                  ! Version Identifier

OS:SizingPeriod:DesignDay,
  {97216a4a-cdf9-4f63-bf28-78f0d66af042}, ! Handle
  Corpus Christi Ann Htg 99% Condns DB,   ! Name
  2.8,                                    ! Maximum Dry-Bulb Temperature {C}
  0,                                      ! Daily Dry-Bulb Temperature Range {deltaC}
  2.8,                                    ! Humidity Indicating Conditions at Maximum Dry-Bulb {BasedOnField A3}
  101169,                                 ! Barometric Pressure {Pa}
  5.4,                                    ! Wind Speed {m/s}
  350,                                    ! Wind Direction {deg}
  0,                                      ! Sky Clearness
  0,                                      ! Rain Indicator
  0,                                      ! Snow Indicator
  21,                                     ! Day of Month
  1,                                      ! Month
  WinterDesignDay,                        ! Day Type
  0,                                      ! Daylight Saving Time Indicator
  Wetbulb,                                ! Humidity Indicating Type
  ,                                       ! Humidity Indicating Day Schedule Name
  DefaultMultipliers,                     ! Dry-Bulb Temperature Range Modifier Type
  ,                                       ! Dry-Bulb Temperature Range Modifier Schedule Name
  ASHRAEClearSky;                         ! Solar Model Indicator

OS:ComponentData,
  {672940ae-2528-49cf-ae93-5eef037f71ec}, ! Handle
  Component Data 1,                       ! Name
  {6bcdf800-5acd-4868-ba06-e781739ab879}, ! UUID
  {2a0aeccd-29dc-46d4-9ccd-521be38b279c}, ! Version UUID
  1366310625,                             ! Creation Timestamp
  1366310625,                             ! Version Timestamp
  {97216a4a-cdf9-4f63-bf28-78f0d66af042}; ! Name of Object 1

