
OS:Version,
  {27e1ecef-39c6-4536-9afa-175bec629dc4}, ! Handle
  0.9.3;                                  ! Version Identifier

OS:SizingPeriod:DesignDay,
  {ac2f6331-d931-4910-a755-d52d670326c1}, ! Handle
  Grand Rapids Ann Clg 2% Condns Enth=>MDB, ! Name
  27.1,                                   ! Maximum Dry-Bulb Temperature {C}
  11.1,                                   ! Daily Dry-Bulb Temperature Range {deltaC}
  68000,                                  ! Humidity Indicating Conditions at Maximum Dry-Bulb {BasedOnField A3}
  98416,                                  ! Barometric Pressure {Pa}
  5.8,                                    ! Wind Speed {m/s}
  240,                                    ! Wind Direction {deg}
  0,                                      ! Sky Clearness
  0,                                      ! Rain Indicator
  0,                                      ! Snow Indicator
  21,                                     ! Day of Month
  7,                                      ! Month
  SummerDesignDay,                        ! Day Type
  0,                                      ! Daylight Saving Time Indicator
  Enthalpy,                               ! Humidity Indicating Type
  ,                                       ! Humidity Indicating Day Schedule Name
  DefaultMultipliers,                     ! Dry-Bulb Temperature Range Modifier Type
  ,                                       ! Dry-Bulb Temperature Range Modifier Schedule Name
  ASHRAETau,                              ! Solar Model Indicator
  ,                                       ! Beam Solar Day Schedule Name
  ,                                       ! Diffuse Solar Day Schedule Name
  0.424,                                  ! ASHRAE Taub {dimensionless}
  2.173;                                  ! ASHRAE Taud {dimensionless}

