
OS:Version,
  {de0f87f1-1ea6-4d6c-9e26-2fbe343dd424}, ! Handle
  0.9.3;                                  ! Version Identifier

OS:SizingPeriod:DesignDay,
  {9a2c1207-5bcd-49bd-a6d0-778da1785a2d}, ! Handle
  Houston Ellington Afb  Clear Ann Clg 1% Condns DP=>MDB, ! Name
  28.6,                                   ! Maximum Dry-Bulb Temperature {C}
  9.2,                                    ! Daily Dry-Bulb Temperature Range {deltaC}
  26.3,                                   ! Humidity Indicating Conditions at Maximum Dry-Bulb {BasedOnField A3}
  101253,                                 ! Barometric Pressure {Pa}
  3.5,                                    ! Wind Speed {m/s}
  160,                                    ! Wind Direction {deg}
  0,                                      ! Sky Clearness
  0,                                      ! Rain Indicator
  0,                                      ! Snow Indicator
  21,                                     ! Day of Month
  7,                                      ! Month
  SummerDesignDay,                        ! Day Type
  0,                                      ! Daylight Saving Time Indicator
  Dewpoint,                               ! Humidity Indicating Type
  ,                                       ! Humidity Indicating Day Schedule Name
  DefaultMultipliers,                     ! Dry-Bulb Temperature Range Modifier Type
  ,                                       ! Dry-Bulb Temperature Range Modifier Schedule Name
  ASHRAETau,                              ! Solar Model Indicator
  ,                                       ! Beam Solar Day Schedule Name
  ,                                       ! Diffuse Solar Day Schedule Name
  0.503,                                  ! ASHRAE Taub {dimensionless}
  1.96;                                   ! ASHRAE Taud {dimensionless}

OS:ComponentData,
  {a9eb281b-79e5-44a5-9b20-5bea623c0e4e}, ! Handle
  Component Data 1,                       ! Name
  {23c1f08d-7366-4154-97af-e24d27e5ff14}, ! UUID
  {0ce4bc2a-184b-412a-b534-d34433adedee}, ! Version UUID
  1366310752,                             ! Creation Timestamp
  1366310752,                             ! Version Timestamp
  {9a2c1207-5bcd-49bd-a6d0-778da1785a2d}; ! Name of Object 1

