
OS:Version,
  {84e0f0b8-1491-46c8-b708-5643750e7496}, ! Handle
  0.9.3;                                  ! Version Identifier

OS:SizingPeriod:DesignDay,
  {272a604c-1db3-4aeb-841c-3a7abcaa62a1}, ! Handle
  Columbus/Int'l Airport Ann Htg 99% Condns DB, ! Name
  -12.7,                                  ! Maximum Dry-Bulb Temperature {C}
  0,                                      ! Daily Dry-Bulb Temperature Range {deltaC}
  -12.7,                                  ! Humidity Indicating Conditions at Maximum Dry-Bulb {BasedOnField A3}
  98369,                                  ! Barometric Pressure {Pa}
  3.6,                                    ! Wind Speed {m/s}
  260,                                    ! Wind Direction {deg}
  0,                                      ! Sky Clearness
  0,                                      ! Rain Indicator
  0,                                      ! Snow Indicator
  21,                                     ! Day of Month
  1,                                      ! Month
  WinterDesignDay,                        ! Day Type
  0,                                      ! Daylight Saving Time Indicator
  Wetbulb,                                ! Humidity Indicating Type
  ,                                       ! Humidity Indicating Day Schedule Name
  DefaultMultipliers,                     ! Dry-Bulb Temperature Range Modifier Type
  ,                                       ! Dry-Bulb Temperature Range Modifier Schedule Name
  ASHRAEClearSky;                         ! Solar Model Indicator

OS:ComponentData,
  {afefa629-2c3d-4d21-852d-dc1ee250a48a}, ! Handle
  Component Data 1,                       ! Name
  {6c3f66a0-4694-41b3-9b9f-ac6979db31c3}, ! UUID
  {969a0a26-f825-4a85-93a1-889b421e3b96}, ! Version UUID
  1366309788,                             ! Creation Timestamp
  1366309788,                             ! Version Timestamp
  {272a604c-1db3-4aeb-841c-3a7abcaa62a1}; ! Name of Object 1

