
OS:Version,
  {228899e4-1b70-41a5-80e5-a89cd752f3bd}, ! Handle
  0.9.3;                                  ! Version Identifier

OS:SizingPeriod:DesignDay,
  {a31ef0cf-9eb3-434a-8fe2-20907d064ec8}, ! Handle
  Evansville Regional Ap Ann Htg 99.6% Condns DB, ! Name
  -14.7,                                  ! Maximum Dry-Bulb Temperature {C}
  0,                                      ! Daily Dry-Bulb Temperature Range {deltaC}
  -14.7,                                  ! Humidity Indicating Conditions at Maximum Dry-Bulb {BasedOnField A3}
  99939,                                  ! Barometric Pressure {Pa}
  3.4,                                    ! Wind Speed {m/s}
  320,                                    ! Wind Direction {deg}
  0,                                      ! Sky Clearness
  0,                                      ! Rain Indicator
  0,                                      ! Snow Indicator
  21,                                     ! Day of Month
  1,                                      ! Month
  WinterDesignDay,                        ! Day Type
  0,                                      ! Daylight Saving Time Indicator
  Wetbulb,                                ! Humidity Indicating Type
  ,                                       ! Humidity Indicating Day Schedule Name
  DefaultMultipliers,                     ! Dry-Bulb Temperature Range Modifier Type
  ,                                       ! Dry-Bulb Temperature Range Modifier Schedule Name
  ASHRAEClearSky;                         ! Solar Model Indicator

OS:ComponentData,
  {04120859-95f5-4de1-87f1-eaf417f5b9ab}, ! Handle
  Component Data 1,                       ! Name
  {dfa0c0a7-d3c5-4795-ab50-60425fc2955c}, ! UUID
  {0509eec9-fb34-4a15-b17a-94c94d803a68}, ! Version UUID
  1366307432,                             ! Creation Timestamp
  1366307432,                             ! Version Timestamp
  {a31ef0cf-9eb3-434a-8fe2-20907d064ec8}; ! Name of Object 1

