
OS:Version,
  {c8fac808-688d-4f02-8323-4c24f4cefe66}, ! Handle
  0.9.3;                                  ! Version Identifier

OS:SizingPeriod:DesignDay,
  {e92cd871-0a45-4d1c-ba62-071557e17bf7}, ! Handle
  Bethel Ann Clg .4% Condns WB=>MDB,      ! Name
  20.6,                                   ! Maximum Dry-Bulb Temperature {C}
  7.7,                                    ! Daily Dry-Bulb Temperature Range {deltaC}
  15.7,                                   ! Humidity Indicating Conditions at Maximum Dry-Bulb {BasedOnField A3}
  100774,                                 ! Barometric Pressure {Pa}
  4.9,                                    ! Wind Speed {m/s}
  10,                                     ! Wind Direction {deg}
  0,                                      ! Sky Clearness
  0,                                      ! Rain Indicator
  0,                                      ! Snow Indicator
  21,                                     ! Day of Month
  7,                                      ! Month
  SummerDesignDay,                        ! Day Type
  0,                                      ! Daylight Saving Time Indicator
  Wetbulb,                                ! Humidity Indicating Type
  ,                                       ! Humidity Indicating Day Schedule Name
  DefaultMultipliers,                     ! Dry-Bulb Temperature Range Modifier Type
  ,                                       ! Dry-Bulb Temperature Range Modifier Schedule Name
  ASHRAETau,                              ! Solar Model Indicator
  ,                                       ! Beam Solar Day Schedule Name
  ,                                       ! Diffuse Solar Day Schedule Name
  0.383,                                  ! ASHRAE Taub {dimensionless}
  2.185;                                  ! ASHRAE Taud {dimensionless}

OS:ComponentData,
  {14b19364-e303-410c-892b-8b745bd7266c}, ! Handle
  Component Data 1,                       ! Name
  {903a849f-5cde-4cdd-af82-2dc1bd5635c4}, ! UUID
  {f3616e94-97df-435b-a884-ca291e0539c2}, ! Version UUID
  1366304752,                             ! Creation Timestamp
  1366304752,                             ! Version Timestamp
  {e92cd871-0a45-4d1c-ba62-071557e17bf7}; ! Name of Object 1

