
OS:Version,
  {dd7a9b57-1a25-400a-b5eb-a31c15be2ee4}, ! Handle
  0.9.3;                                  ! Version Identifier

OS:SizingPeriod:DesignDay,
  {0dea8002-3d9e-4fcd-8ecf-fba7902b697f}, ! Handle
  AMARILLO Ann Hum_n 99.6% Condns DP=>MCDB, ! Name
  -8.2,                                   ! Maximum Dry-Bulb Temperature {C}
  0,                                      ! Daily Dry-Bulb Temperature Range {deltaC}
  -18.9,                                  ! Humidity Indicating Conditions at Maximum Dry-Bulb {BasedOnField A3}
  88811,                                  ! Barometric Pressure {Pa}
  5.1,                                    ! Wind Speed {m/s}
  20,                                     ! Wind Direction {deg}
  0,                                      ! Sky Clearness
  0,                                      ! Rain Indicator
  0,                                      ! Snow Indicator
  21,                                     ! Day of Month
  12,                                     ! Month
  WinterDesignDay,                        ! Day Type
  0,                                      ! Daylight Saving Time Indicator
  Dewpoint,                               ! Humidity Indicating Type
  ,                                       ! Humidity Indicating Day Schedule Name
  DefaultMultipliers,                     ! Dry-Bulb Temperature Range Modifier Type
  ,                                       ! Dry-Bulb Temperature Range Modifier Schedule Name
  ASHRAEClearSky;                         ! Solar Model Indicator

OS:ComponentData,
  {9e7f57b7-6201-4044-b73a-b64a73bf2629}, ! Handle
  Component Data 1,                       ! Name
  {06055771-1fcd-4b46-8e48-51d876c3e084}, ! UUID
  {8a75ae3c-99bc-4f32-b790-e48bd3a64680}, ! Version UUID
  1366310566,                             ! Creation Timestamp
  1366310566,                             ! Version Timestamp
  {0dea8002-3d9e-4fcd-8ecf-fba7902b697f}; ! Name of Object 1

