
OS:Version,
  {6b1e17a8-8737-49fe-b15b-4ac2b4fe9698}, ! Handle
  0.9.3;                                  ! Version Identifier

OS:SizingPeriod:DesignDay,
  {0657c6e6-47e8-4ada-9aea-40e00458cdeb}, ! Handle
  Greensboro Piedmont Triad Int Ann Htg Wind 99% Condns WS=>MCDB, ! Name
  7.9,                                    ! Maximum Dry-Bulb Temperature {C}
  0,                                      ! Daily Dry-Bulb Temperature Range {deltaC}
  7.9,                                    ! Humidity Indicating Conditions at Maximum Dry-Bulb {BasedOnField A3}
  98088,                                  ! Barometric Pressure {Pa}
  9.1,                                    ! Wind Speed {m/s}
  300,                                    ! Wind Direction {deg}
  0,                                      ! Sky Clearness
  0,                                      ! Rain Indicator
  0,                                      ! Snow Indicator
  21,                                     ! Day of Month
  1,                                      ! Month
  WinterDesignDay,                        ! Day Type
  0,                                      ! Daylight Saving Time Indicator
  Wetbulb,                                ! Humidity Indicating Type
  ,                                       ! Humidity Indicating Day Schedule Name
  DefaultMultipliers,                     ! Dry-Bulb Temperature Range Modifier Type
  ,                                       ! Dry-Bulb Temperature Range Modifier Schedule Name
  ASHRAEClearSky;                         ! Solar Model Indicator

OS:ComponentData,
  {fde80684-8fd3-4ec4-86c0-8c60c47b8eb6}, ! Handle
  Component Data 1,                       ! Name
  {3a9afab1-c072-428b-ad81-d234d412fce6}, ! UUID
  {3540a447-fa05-463d-878d-e88c38d5fda3}, ! Version UUID
  1366308932,                             ! Creation Timestamp
  1366308932,                             ! Version Timestamp
  {0657c6e6-47e8-4ada-9aea-40e00458cdeb}; ! Name of Object 1

