
OS:Version,
  {df5cfcb0-226b-43b1-bc8a-ea7a24ef960c}, ! Handle
  0.9.3;                                  ! Version Identifier

OS:SizingPeriod:DesignDay,
  {a8062b38-d6aa-4560-bc78-0f832aa9ed41}, ! Handle
  Jackson Reynolds Field Ann Clg 2% Condns DB=>MWB, ! Name
  28.5,                                   ! Maximum Dry-Bulb Temperature {C}
  11.3,                                   ! Daily Dry-Bulb Temperature Range {deltaC}
  21.5,                                   ! Humidity Indicating Conditions at Maximum Dry-Bulb {BasedOnField A3}
  97726,                                  ! Barometric Pressure {Pa}
  4.6,                                    ! Wind Speed {m/s}
  220,                                    ! Wind Direction {deg}
  0,                                      ! Sky Clearness
  0,                                      ! Rain Indicator
  0,                                      ! Snow Indicator
  21,                                     ! Day of Month
  7,                                      ! Month
  SummerDesignDay,                        ! Day Type
  0,                                      ! Daylight Saving Time Indicator
  Wetbulb,                                ! Humidity Indicating Type
  ,                                       ! Humidity Indicating Day Schedule Name
  DefaultMultipliers,                     ! Dry-Bulb Temperature Range Modifier Type
  ,                                       ! Dry-Bulb Temperature Range Modifier Schedule Name
  ASHRAETau,                              ! Solar Model Indicator
  ,                                       ! Beam Solar Day Schedule Name
  ,                                       ! Diffuse Solar Day Schedule Name
  0.429,                                  ! ASHRAE Taub {dimensionless}
  2.131;                                  ! ASHRAE Taud {dimensionless}

OS:ComponentData,
  {95d978db-b92c-47e1-a871-eb0509310392}, ! Handle
  Component Data 1,                       ! Name
  {1e0d197e-968a-47a5-a211-a9ebb1d4ba6d}, ! UUID
  {1a789dc1-79cf-4144-a5ce-c37730062e52}, ! Version UUID
  1366308045,                             ! Creation Timestamp
  1366308045,                             ! Version Timestamp
  {a8062b38-d6aa-4560-bc78-0f832aa9ed41}; ! Name of Object 1

