
OS:Version,
  {8b237f03-cfb4-4123-b805-d7fa36b160cd}, ! Handle
  0.9.3;                                  ! Version Identifier

OS:SizingPeriod:DesignDay,
  {b3e86583-7f1d-465d-a68c-19943fecb919}, ! Handle
  Ellsworth Afb Ann Clg 2% Condns Enth=>MDB, ! Name
  28.1,                                   ! Maximum Dry-Bulb Temperature {C}
  13.9,                                   ! Daily Dry-Bulb Temperature Range {deltaC}
  60300,                                  ! Humidity Indicating Conditions at Maximum Dry-Bulb {BasedOnField A3}
  90093,                                  ! Barometric Pressure {Pa}
  4.9,                                    ! Wind Speed {m/s}
  160,                                    ! Wind Direction {deg}
  0,                                      ! Sky Clearness
  0,                                      ! Rain Indicator
  0,                                      ! Snow Indicator
  21,                                     ! Day of Month
  7,                                      ! Month
  SummerDesignDay,                        ! Day Type
  0,                                      ! Daylight Saving Time Indicator
  Enthalpy,                               ! Humidity Indicating Type
  ,                                       ! Humidity Indicating Day Schedule Name
  DefaultMultipliers,                     ! Dry-Bulb Temperature Range Modifier Type
  ,                                       ! Dry-Bulb Temperature Range Modifier Schedule Name
  ASHRAETau,                              ! Solar Model Indicator
  ,                                       ! Beam Solar Day Schedule Name
  ,                                       ! Diffuse Solar Day Schedule Name
  0.407,                                  ! ASHRAE Taub {dimensionless}
  2.147;                                  ! ASHRAE Taud {dimensionless}

OS:ComponentData,
  {7c192a8d-ed32-463d-842b-3bc469d74dcf}, ! Handle
  Component Data 1,                       ! Name
  {5868f34e-bd29-4f7d-9ff6-31777cebc269}, ! UUID
  {5404bbe1-b103-45b2-bb94-4f8b7f317918}, ! Version UUID
  1366310396,                             ! Creation Timestamp
  1366310396,                             ! Version Timestamp
  {b3e86583-7f1d-465d-a68c-19943fecb919}; ! Name of Object 1

