
OS:Version,
  {dc95a607-28cd-421c-a7fc-32de94e19171}, ! Handle
  0.9.3;                                  ! Version Identifier

OS:SizingPeriod:DesignDay,
  {80ce52f0-c8ba-4e56-9221-02f33a998ce6}, ! Handle
  Harlingen Rio Grande Valley I Ann Clg 2% Condns WB=>MDB, ! Name
  31.7,                                   ! Maximum Dry-Bulb Temperature {C}
  11,                                     ! Daily Dry-Bulb Temperature Range {deltaC}
  26.6,                                   ! Humidity Indicating Conditions at Maximum Dry-Bulb {BasedOnField A3}
  101205,                                 ! Barometric Pressure {Pa}
  7.3,                                    ! Wind Speed {m/s}
  150,                                    ! Wind Direction {deg}
  0,                                      ! Sky Clearness
  0,                                      ! Rain Indicator
  0,                                      ! Snow Indicator
  21,                                     ! Day of Month
  7,                                      ! Month
  SummerDesignDay,                        ! Day Type
  0,                                      ! Daylight Saving Time Indicator
  Wetbulb,                                ! Humidity Indicating Type
  ,                                       ! Humidity Indicating Day Schedule Name
  DefaultMultipliers,                     ! Dry-Bulb Temperature Range Modifier Type
  ,                                       ! Dry-Bulb Temperature Range Modifier Schedule Name
  ASHRAETau,                              ! Solar Model Indicator
  ,                                       ! Beam Solar Day Schedule Name
  ,                                       ! Diffuse Solar Day Schedule Name
  0.46,                                   ! ASHRAE Taub {dimensionless}
  2.113;                                  ! ASHRAE Taud {dimensionless}

OS:ComponentData,
  {168bf31b-2b35-4211-8363-4f264abeb9d1}, ! Handle
  Component Data 1,                       ! Name
  {2ab2516d-dada-4b1a-a01d-77af85336d4d}, ! UUID
  {2f706007-2066-448b-a55f-22e11556f857}, ! Version UUID
  1366310732,                             ! Creation Timestamp
  1366310732,                             ! Version Timestamp
  {80ce52f0-c8ba-4e56-9221-02f33a998ce6}; ! Name of Object 1

