
OS:Version,
  {e4bbf711-c9c1-4f5b-b182-50024cdaabab}, ! Handle
  0.9.3;                                  ! Version Identifier

OS:SizingPeriod:DesignDay,
  {a0ae672c-e0cf-4aff-b6df-23c444656ec4}, ! Handle
  Greeley Weld  Awos Ann Clg 2% Condns WB=>MDB, ! Name
  28,                                     ! Maximum Dry-Bulb Temperature {C}
  17.5,                                   ! Daily Dry-Bulb Temperature Range {deltaC}
  18,                                     ! Humidity Indicating Conditions at Maximum Dry-Bulb {BasedOnField A3}
  85389,                                  ! Barometric Pressure {Pa}
  3.5,                                    ! Wind Speed {m/s}
  140,                                    ! Wind Direction {deg}
  0,                                      ! Sky Clearness
  0,                                      ! Rain Indicator
  0,                                      ! Snow Indicator
  21,                                     ! Day of Month
  7,                                      ! Month
  SummerDesignDay,                        ! Day Type
  0,                                      ! Daylight Saving Time Indicator
  Wetbulb,                                ! Humidity Indicating Type
  ,                                       ! Humidity Indicating Day Schedule Name
  DefaultMultipliers,                     ! Dry-Bulb Temperature Range Modifier Type
  ,                                       ! Dry-Bulb Temperature Range Modifier Schedule Name
  ASHRAETau,                              ! Solar Model Indicator
  ,                                       ! Beam Solar Day Schedule Name
  ,                                       ! Diffuse Solar Day Schedule Name
  0.429,                                  ! ASHRAE Taub {dimensionless}
  1.991;                                  ! ASHRAE Taud {dimensionless}

OS:ComponentData,
  {d5cbef3a-dfb1-4ea5-8b7e-5c000f3bc2a3}, ! Handle
  Component Data 1,                       ! Name
  {2f5d5874-51c6-42ae-9a5e-f2075a77e6be}, ! UUID
  {7397e882-f372-4bd3-aa91-d05b7c6125a4}, ! Version UUID
  1366306706,                             ! Creation Timestamp
  1366306706,                             ! Version Timestamp
  {a0ae672c-e0cf-4aff-b6df-23c444656ec4}; ! Name of Object 1

