
OS:Version,
  {0fae9cd1-7650-4a19-a8dc-8311127a1464}, ! Handle
  0.9.3;                                  ! Version Identifier

OS:SizingPeriod:DesignDay,
  {ab0c60cf-c80e-466a-b393-30e5a23cae08}, ! Handle
  Albuquerque Ann Clg 2% Condns Enth=>MDB, ! Name
  26.6,                                   ! Maximum Dry-Bulb Temperature {C}
  13.5,                                   ! Daily Dry-Bulb Temperature Range {deltaC}
  55900,                                  ! Humidity Indicating Conditions at Maximum Dry-Bulb {BasedOnField A3}
  83318,                                  ! Barometric Pressure {Pa}
  4.4,                                    ! Wind Speed {m/s}
  220,                                    ! Wind Direction {deg}
  0,                                      ! Sky Clearness
  0,                                      ! Rain Indicator
  0,                                      ! Snow Indicator
  21,                                     ! Day of Month
  7,                                      ! Month
  SummerDesignDay,                        ! Day Type
  0,                                      ! Daylight Saving Time Indicator
  Enthalpy,                               ! Humidity Indicating Type
  ,                                       ! Humidity Indicating Day Schedule Name
  DefaultMultipliers,                     ! Dry-Bulb Temperature Range Modifier Type
  ,                                       ! Dry-Bulb Temperature Range Modifier Schedule Name
  ASHRAETau,                              ! Solar Model Indicator
  ,                                       ! Beam Solar Day Schedule Name
  ,                                       ! Diffuse Solar Day Schedule Name
  0.463,                                  ! ASHRAE Taub {dimensionless}
  1.887;                                  ! ASHRAE Taud {dimensionless}

OS:ComponentData,
  {2ce3f534-2941-44a4-bbda-0c1f8e7cf311}, ! Handle
  Component Data 1,                       ! Name
  {5b107820-4325-404b-8a5e-2b1f9ec76c6c}, ! UUID
  {e65724db-379a-427c-b9b3-6fdce47134b6}, ! Version UUID
  1366309365,                             ! Creation Timestamp
  1366309365,                             ! Version Timestamp
  {ab0c60cf-c80e-466a-b393-30e5a23cae08}; ! Name of Object 1

