
OS:Version,
  {a4d0a361-9acb-49b2-af9e-8439b7b677f7}, ! Handle
  0.9.3;                                  ! Version Identifier

OS:SizingPeriod:DesignDay,
  {7cabc69d-0b21-4a32-b5f4-79f40d0a7d41}, ! Handle
  Hooper Bay Ann Clg .4% Condns Enth=>MDB, ! Name
  17,                                     ! Maximum Dry-Bulb Temperature {C}
  3.4,                                    ! Daily Dry-Bulb Temperature Range {deltaC}
  40200,                                  ! Humidity Indicating Conditions at Maximum Dry-Bulb {BasedOnField A3}
  101253,                                 ! Barometric Pressure {Pa}
  5.1,                                    ! Wind Speed {m/s}
  100,                                    ! Wind Direction {deg}
  0,                                      ! Sky Clearness
  0,                                      ! Rain Indicator
  0,                                      ! Snow Indicator
  21,                                     ! Day of Month
  8,                                      ! Month
  SummerDesignDay,                        ! Day Type
  0,                                      ! Daylight Saving Time Indicator
  Enthalpy,                               ! Humidity Indicating Type
  ,                                       ! Humidity Indicating Day Schedule Name
  DefaultMultipliers,                     ! Dry-Bulb Temperature Range Modifier Type
  ,                                       ! Dry-Bulb Temperature Range Modifier Schedule Name
  ASHRAETau,                              ! Solar Model Indicator
  ,                                       ! Beam Solar Day Schedule Name
  ,                                       ! Diffuse Solar Day Schedule Name
  0.429,                                  ! ASHRAE Taub {dimensionless}
  2.014;                                  ! ASHRAE Taud {dimensionless}

OS:ComponentData,
  {29bf2af5-24fb-4825-835d-41aa6ae22f64}, ! Handle
  Component Data 1,                       ! Name
  {6702ca71-c982-4612-ba10-fc6d2d23d8a3}, ! UUID
  {fa80c2c7-dda2-40dd-99a3-e625b3eb6c70}, ! Version UUID
  1366305319,                             ! Creation Timestamp
  1366305319,                             ! Version Timestamp
  {7cabc69d-0b21-4a32-b5f4-79f40d0a7d41}; ! Name of Object 1

