
OS:Version,
  {a66e8939-af22-4b5e-b110-1b5807d25a52}, ! Handle
  0.9.3;                                  ! Version Identifier

OS:SizingPeriod:DesignDay,
  {bcf10ae3-5fec-4701-8f50-afb29f466a70}, ! Handle
  Columbia Ann Clg 2% Condns DP=>MDB,     ! Name
  26.9,                                   ! Maximum Dry-Bulb Temperature {C}
  11.1,                                   ! Daily Dry-Bulb Temperature Range {deltaC}
  23.3,                                   ! Humidity Indicating Conditions at Maximum Dry-Bulb {BasedOnField A3}
  100499,                                 ! Barometric Pressure {Pa}
  3.9,                                    ! Wind Speed {m/s}
  240,                                    ! Wind Direction {deg}
  0,                                      ! Sky Clearness
  0,                                      ! Rain Indicator
  0,                                      ! Snow Indicator
  21,                                     ! Day of Month
  7,                                      ! Month
  SummerDesignDay,                        ! Day Type
  0,                                      ! Daylight Saving Time Indicator
  Dewpoint,                               ! Humidity Indicating Type
  ,                                       ! Humidity Indicating Day Schedule Name
  DefaultMultipliers,                     ! Dry-Bulb Temperature Range Modifier Type
  ,                                       ! Dry-Bulb Temperature Range Modifier Schedule Name
  ASHRAETau,                              ! Solar Model Indicator
  ,                                       ! Beam Solar Day Schedule Name
  ,                                       ! Diffuse Solar Day Schedule Name
  0.566,                                  ! ASHRAE Taub {dimensionless}
  1.764;                                  ! ASHRAE Taud {dimensionless}

OS:ComponentData,
  {df0da864-ad55-47ba-8905-75b6b40e4008}, ! Handle
  Component Data 1,                       ! Name
  {3217d28f-3929-4f36-a255-6915b52e8f4a}, ! UUID
  {59557459-f504-40ed-bb1f-36ba75682be9}, ! Version UUID
  1366310345,                             ! Creation Timestamp
  1366310345,                             ! Version Timestamp
  {bcf10ae3-5fec-4701-8f50-afb29f466a70}; ! Name of Object 1

