
OS:Version,
  {2dfd23d7-3f52-4477-8fc8-47d0e9714064}, ! Handle
  0.9.3;                                  ! Version Identifier

OS:SizingPeriod:DesignDay,
  {eb43dca8-e4d2-41ba-8907-b2455bcbf47d}, ! Handle
  Eugene Mahlon Sweet Arpt  Uo Ann Clg 1% Condns WB=>MDB, ! Name
  29.2,                                   ! Maximum Dry-Bulb Temperature {C}
  15.8,                                   ! Daily Dry-Bulb Temperature Range {deltaC}
  19.5,                                   ! Humidity Indicating Conditions at Maximum Dry-Bulb {BasedOnField A3}
  100022,                                 ! Barometric Pressure {Pa}
  5.1,                                    ! Wind Speed {m/s}
  0,                                      ! Wind Direction {deg}
  0,                                      ! Sky Clearness
  0,                                      ! Rain Indicator
  0,                                      ! Snow Indicator
  21,                                     ! Day of Month
  7,                                      ! Month
  SummerDesignDay,                        ! Day Type
  0,                                      ! Daylight Saving Time Indicator
  Wetbulb,                                ! Humidity Indicating Type
  ,                                       ! Humidity Indicating Day Schedule Name
  DefaultMultipliers,                     ! Dry-Bulb Temperature Range Modifier Type
  ,                                       ! Dry-Bulb Temperature Range Modifier Schedule Name
  ASHRAETau,                              ! Solar Model Indicator
  ,                                       ! Beam Solar Day Schedule Name
  ,                                       ! Diffuse Solar Day Schedule Name
  0.357,                                  ! ASHRAE Taub {dimensionless}
  2.559;                                  ! ASHRAE Taud {dimensionless}

