
OS:Version,
  {9054c2c7-bd12-4dd3-8063-7a04795b6b25}, ! Handle
  0.9.3;                                  ! Version Identifier

OS:SizingPeriod:DesignDay,
  {bace9550-fe47-4a85-856f-beec67c25bf6}, ! Handle
  Douglas Bisbee Douglas Intl A Ann Htg 99.6% Condns DB, ! Name
  -5.2,                                   ! Maximum Dry-Bulb Temperature {C}
  0,                                      ! Daily Dry-Bulb Temperature Range {deltaC}
  -5.2,                                   ! Humidity Indicating Conditions at Maximum Dry-Bulb {BasedOnField A3}
  87193,                                  ! Barometric Pressure {Pa}
  1.6,                                    ! Wind Speed {m/s}
  10,                                     ! Wind Direction {deg}
  0,                                      ! Sky Clearness
  0,                                      ! Rain Indicator
  0,                                      ! Snow Indicator
  21,                                     ! Day of Month
  12,                                     ! Month
  WinterDesignDay,                        ! Day Type
  0,                                      ! Daylight Saving Time Indicator
  Wetbulb,                                ! Humidity Indicating Type
  ,                                       ! Humidity Indicating Day Schedule Name
  DefaultMultipliers,                     ! Dry-Bulb Temperature Range Modifier Type
  ,                                       ! Dry-Bulb Temperature Range Modifier Schedule Name
  ASHRAEClearSky;                         ! Solar Model Indicator

OS:ComponentData,
  {f56ccba4-1c4f-4dcb-b891-6981e0a4f289}, ! Handle
  Component Data 1,                       ! Name
  {31147f46-d265-41e7-b9ae-e9aa8542eec2}, ! UUID
  {fb35c3f5-7530-44a2-905f-145b1b333945}, ! Version UUID
  1366306270,                             ! Creation Timestamp
  1366306270,                             ! Version Timestamp
  {bace9550-fe47-4a85-856f-beec67c25bf6}; ! Name of Object 1

