
OS:Version,
  {ae46d923-1816-4187-a53d-675b6af530c4}, ! Handle
  0.9.3;                                  ! Version Identifier

OS:SizingPeriod:DesignDay,
  {1cf14a88-b29c-48bd-9174-a5a015e29659}, ! Handle
  Lewistown Municipal Arpt Ann Htg Wind 99.6% Condns WS=>MCDB, ! Name
  4.2,                                    ! Maximum Dry-Bulb Temperature {C}
  0,                                      ! Daily Dry-Bulb Temperature Range {deltaC}
  4.2,                                    ! Humidity Indicating Conditions at Maximum Dry-Bulb {BasedOnField A3}
  87044,                                  ! Barometric Pressure {Pa}
  14.6,                                   ! Wind Speed {m/s}
  120,                                    ! Wind Direction {deg}
  0,                                      ! Sky Clearness
  0,                                      ! Rain Indicator
  0,                                      ! Snow Indicator
  21,                                     ! Day of Month
  12,                                     ! Month
  WinterDesignDay,                        ! Day Type
  0,                                      ! Daylight Saving Time Indicator
  Wetbulb,                                ! Humidity Indicating Type
  ,                                       ! Humidity Indicating Day Schedule Name
  DefaultMultipliers,                     ! Dry-Bulb Temperature Range Modifier Type
  ,                                       ! Dry-Bulb Temperature Range Modifier Schedule Name
  ASHRAEClearSky;                         ! Solar Model Indicator

OS:ComponentData,
  {01fa52f0-6476-447d-896e-b4d671dbc939}, ! Handle
  Component Data 1,                       ! Name
  {9f12e3c8-6a8e-4399-9848-1695d4533ee6}, ! UUID
  {73d290ca-9863-4100-9b05-46985b30129f}, ! Version UUID
  1366308820,                             ! Creation Timestamp
  1366308820,                             ! Version Timestamp
  {1cf14a88-b29c-48bd-9174-a5a015e29659}; ! Name of Object 1

