
OS:Version,
  {3832c5b0-7d65-470c-b525-e6984f9ae567}, ! Handle
  0.9.3;                                  ! Version Identifier

OS:SizingPeriod:DesignDay,
  {0fb7ee33-f621-4731-b271-9139e265a173}, ! Handle
  Bismarck Ann Clg .4% Condns Enth=>MDB,  ! Name
  29.6,                                   ! Maximum Dry-Bulb Temperature {C}
  14.2,                                   ! Daily Dry-Bulb Temperature Range {deltaC}
  72900,                                  ! Humidity Indicating Conditions at Maximum Dry-Bulb {BasedOnField A3}
  95392,                                  ! Barometric Pressure {Pa}
  6,                                      ! Wind Speed {m/s}
  160,                                    ! Wind Direction {deg}
  0,                                      ! Sky Clearness
  0,                                      ! Rain Indicator
  0,                                      ! Snow Indicator
  21,                                     ! Day of Month
  7,                                      ! Month
  SummerDesignDay,                        ! Day Type
  0,                                      ! Daylight Saving Time Indicator
  Enthalpy,                               ! Humidity Indicating Type
  ,                                       ! Humidity Indicating Day Schedule Name
  DefaultMultipliers,                     ! Dry-Bulb Temperature Range Modifier Type
  ,                                       ! Dry-Bulb Temperature Range Modifier Schedule Name
  ASHRAETau,                              ! Solar Model Indicator
  ,                                       ! Beam Solar Day Schedule Name
  ,                                       ! Diffuse Solar Day Schedule Name
  0.393,                                  ! ASHRAE Taub {dimensionless}
  2.249;                                  ! ASHRAE Taud {dimensionless}

OS:ComponentData,
  {0ddf4e2b-6a5a-48c2-98f6-63ba587d2620}, ! Handle
  Component Data 1,                       ! Name
  {c9180923-fce6-45b9-8f96-e612efaf36e3}, ! UUID
  {b71b6d8e-ad1f-46d4-8fb3-69c75e43afc8}, ! Version UUID
  1366309003,                             ! Creation Timestamp
  1366309003,                             ! Version Timestamp
  {0fb7ee33-f621-4731-b271-9139e265a173}; ! Name of Object 1

