
OS:Version,
  {b1d1ac97-2685-4b91-80a0-2aa8fed1fdd6}, ! Handle
  0.9.3;                                  ! Version Identifier

OS:SizingPeriod:DesignDay,
  {1fd93ee1-cb2b-4419-a0ae-7e809bb8b542}, ! Handle
  La Grande Muni Ap Ann Htg 99.6% Condns DB, ! Name
  -12.5,                                  ! Maximum Dry-Bulb Temperature {C}
  0,                                      ! Daily Dry-Bulb Temperature Range {deltaC}
  -12.5,                                  ! Humidity Indicating Conditions at Maximum Dry-Bulb {BasedOnField A3}
  91777,                                  ! Barometric Pressure {Pa}
  2.1,                                    ! Wind Speed {m/s}
  320,                                    ! Wind Direction {deg}
  0,                                      ! Sky Clearness
  0,                                      ! Rain Indicator
  0,                                      ! Snow Indicator
  21,                                     ! Day of Month
  12,                                     ! Month
  WinterDesignDay,                        ! Day Type
  0,                                      ! Daylight Saving Time Indicator
  Wetbulb,                                ! Humidity Indicating Type
  ,                                       ! Humidity Indicating Day Schedule Name
  DefaultMultipliers,                     ! Dry-Bulb Temperature Range Modifier Type
  ,                                       ! Dry-Bulb Temperature Range Modifier Schedule Name
  ASHRAEClearSky;                         ! Solar Model Indicator

OS:ComponentData,
  {62e67dc3-d53d-4a12-9e0e-f260cccfb933}, ! Handle
  Component Data 1,                       ! Name
  {84ef6ba9-7441-4ffc-afde-5b1232f31ed7}, ! UUID
  {124f890e-7baa-47f9-8270-6472076a55bf}, ! Version UUID
  1366310019,                             ! Creation Timestamp
  1366310019,                             ! Version Timestamp
  {1fd93ee1-cb2b-4419-a0ae-7e809bb8b542}; ! Name of Object 1

