
OS:Version,
  {2caf783d-6a50-47fb-8ba1-8ac78708ba48}, ! Handle
  0.9.3;                                  ! Version Identifier

OS:SizingPeriod:DesignDay,
  {adc5c485-bb9e-4bbe-8412-8a9b726cd4ea}, ! Handle
  Knoxville Mcghee Tyson Ap Ann Clg 1% Condns DP=>MDB, ! Name
  26.9,                                   ! Maximum Dry-Bulb Temperature {C}
  10.4,                                   ! Daily Dry-Bulb Temperature Range {deltaC}
  22.8,                                   ! Humidity Indicating Conditions at Maximum Dry-Bulb {BasedOnField A3}
  97854,                                  ! Barometric Pressure {Pa}
  3.2,                                    ! Wind Speed {m/s}
  250,                                    ! Wind Direction {deg}
  0,                                      ! Sky Clearness
  0,                                      ! Rain Indicator
  0,                                      ! Snow Indicator
  21,                                     ! Day of Month
  7,                                      ! Month
  SummerDesignDay,                        ! Day Type
  0,                                      ! Daylight Saving Time Indicator
  Dewpoint,                               ! Humidity Indicating Type
  ,                                       ! Humidity Indicating Day Schedule Name
  DefaultMultipliers,                     ! Dry-Bulb Temperature Range Modifier Type
  ,                                       ! Dry-Bulb Temperature Range Modifier Schedule Name
  ASHRAETau,                              ! Solar Model Indicator
  ,                                       ! Beam Solar Day Schedule Name
  ,                                       ! Diffuse Solar Day Schedule Name
  0.547,                                  ! ASHRAE Taub {dimensionless}
  1.786;                                  ! ASHRAE Taud {dimensionless}

OS:ComponentData,
  {0901cd81-12a1-4164-af79-a7f08ca3ecf1}, ! Handle
  Component Data 1,                       ! Name
  {bcc69739-7198-4885-8350-fd2fe11ac94e}, ! UUID
  {6f097793-7746-42ec-ba1e-10bcf4a328a3}, ! Version UUID
  1366310513,                             ! Creation Timestamp
  1366310513,                             ! Version Timestamp
  {adc5c485-bb9e-4bbe-8412-8a9b726cd4ea}; ! Name of Object 1

