
OS:Version,
  {c597061f-8fff-4897-8b8c-674f06cd8db1}, ! Handle
  0.9.3;                                  ! Version Identifier

OS:SizingPeriod:DesignDay,
  {fdd37f0e-613a-4860-8313-c82e1e654493}, ! Handle
  Cherry Point Mcas Ann Clg 2% Condns DB=>MWB, ! Name
  31.6,                                   ! Maximum Dry-Bulb Temperature {C}
  8.7,                                    ! Daily Dry-Bulb Temperature Range {deltaC}
  24.9,                                   ! Humidity Indicating Conditions at Maximum Dry-Bulb {BasedOnField A3}
  101193,                                 ! Barometric Pressure {Pa}
  3.4,                                    ! Wind Speed {m/s}
  210,                                    ! Wind Direction {deg}
  0,                                      ! Sky Clearness
  0,                                      ! Rain Indicator
  0,                                      ! Snow Indicator
  21,                                     ! Day of Month
  7,                                      ! Month
  SummerDesignDay,                        ! Day Type
  0,                                      ! Daylight Saving Time Indicator
  Wetbulb,                                ! Humidity Indicating Type
  ,                                       ! Humidity Indicating Day Schedule Name
  DefaultMultipliers,                     ! Dry-Bulb Temperature Range Modifier Type
  ,                                       ! Dry-Bulb Temperature Range Modifier Schedule Name
  ASHRAETau,                              ! Solar Model Indicator
  ,                                       ! Beam Solar Day Schedule Name
  ,                                       ! Diffuse Solar Day Schedule Name
  0.581,                                  ! ASHRAE Taub {dimensionless}
  1.748;                                  ! ASHRAE Taud {dimensionless}

OS:ComponentData,
  {2cc27051-2f87-47c5-9254-6bbea29df62f}, ! Handle
  Component Data 1,                       ! Name
  {df4a7c9f-bb48-4b27-8bef-03050fa25f95}, ! UUID
  {74400c66-1421-48f0-9ae8-65576d45efa3}, ! Version UUID
  1366308901,                             ! Creation Timestamp
  1366308901,                             ! Version Timestamp
  {fdd37f0e-613a-4860-8313-c82e1e654493}; ! Name of Object 1

