
OS:Version,
  {900d5807-f3e1-434e-921e-e70f22fcaa0d}, ! Handle
  0.9.3;                                  ! Version Identifier

OS:SizingPeriod:DesignDay,
  {7de5e5c5-3199-4c52-b3bb-1df366cfec79}, ! Handle
  Davis Monthan Afb Ann Clg 1% Condns DB=>MWB, ! Name
  39.1,                                   ! Maximum Dry-Bulb Temperature {C}
  13.3,                                   ! Daily Dry-Bulb Temperature Range {deltaC}
  18.4,                                   ! Humidity Indicating Conditions at Maximum Dry-Bulb {BasedOnField A3}
  91976,                                  ! Barometric Pressure {Pa}
  4.8,                                    ! Wind Speed {m/s}
  310,                                    ! Wind Direction {deg}
  0,                                      ! Sky Clearness
  0,                                      ! Rain Indicator
  0,                                      ! Snow Indicator
  21,                                     ! Day of Month
  7,                                      ! Month
  SummerDesignDay,                        ! Day Type
  0,                                      ! Daylight Saving Time Indicator
  Wetbulb,                                ! Humidity Indicating Type
  ,                                       ! Humidity Indicating Day Schedule Name
  DefaultMultipliers,                     ! Dry-Bulb Temperature Range Modifier Type
  ,                                       ! Dry-Bulb Temperature Range Modifier Schedule Name
  ASHRAETau,                              ! Solar Model Indicator
  ,                                       ! Beam Solar Day Schedule Name
  ,                                       ! Diffuse Solar Day Schedule Name
  0.555,                                  ! ASHRAE Taub {dimensionless}
  1.729;                                  ! ASHRAE Taud {dimensionless}

OS:ComponentData,
  {abf66ce2-8589-4c2b-94b8-31cb130c099f}, ! Handle
  Component Data 1,                       ! Name
  {1753b239-fa32-436b-8887-69fee507ee16}, ! UUID
  {9dad2fd6-9699-4b28-bde9-5b8009b93503}, ! Version UUID
  1366306263,                             ! Creation Timestamp
  1366306263,                             ! Version Timestamp
  {7de5e5c5-3199-4c52-b3bb-1df366cfec79}; ! Name of Object 1

