
OS:Version,
  {81bd9d89-1b35-4778-9f38-38bb5b5151ce}, ! Handle
  0.9.3;                                  ! Version Identifier

OS:SizingPeriod:DesignDay,
  {0758b739-c749-464b-a5d2-81100f925bbc}, ! Handle
  Dalhart Municipal Ap Ann Clg 2% Condns DB=>MWB, ! Name
  33.6,                                   ! Maximum Dry-Bulb Temperature {C}
  15.2,                                   ! Daily Dry-Bulb Temperature Range {deltaC}
  18.4,                                   ! Humidity Indicating Conditions at Maximum Dry-Bulb {BasedOnField A3}
  87545,                                  ! Barometric Pressure {Pa}
  6.5,                                    ! Wind Speed {m/s}
  180,                                    ! Wind Direction {deg}
  0,                                      ! Sky Clearness
  0,                                      ! Rain Indicator
  0,                                      ! Snow Indicator
  21,                                     ! Day of Month
  7,                                      ! Month
  SummerDesignDay,                        ! Day Type
  0,                                      ! Daylight Saving Time Indicator
  Wetbulb,                                ! Humidity Indicating Type
  ,                                       ! Humidity Indicating Day Schedule Name
  DefaultMultipliers,                     ! Dry-Bulb Temperature Range Modifier Type
  ,                                       ! Dry-Bulb Temperature Range Modifier Schedule Name
  ASHRAETau,                              ! Solar Model Indicator
  ,                                       ! Beam Solar Day Schedule Name
  ,                                       ! Diffuse Solar Day Schedule Name
  0.401,                                  ! ASHRAE Taub {dimensionless}
  2.151;                                  ! ASHRAE Taud {dimensionless}

