
OS:Version,
  {c23d4c74-b048-477d-b7fe-b0def7251c86}, ! Handle
  0.9.3;                                  ! Version Identifier

OS:SizingPeriod:DesignDay,
  {db562f7d-311b-4f1e-a3fa-0e1214811e08}, ! Handle
  Fort Polk Aaf Ann Htg 99.6% Condns DB,  ! Name
  -2.9,                                   ! Maximum Dry-Bulb Temperature {C}
  0,                                      ! Daily Dry-Bulb Temperature Range {deltaC}
  -2.9,                                   ! Humidity Indicating Conditions at Maximum Dry-Bulb {BasedOnField A3}
  100106,                                 ! Barometric Pressure {Pa}
  2.6,                                    ! Wind Speed {m/s}
  10,                                     ! Wind Direction {deg}
  0,                                      ! Sky Clearness
  0,                                      ! Rain Indicator
  0,                                      ! Snow Indicator
  21,                                     ! Day of Month
  1,                                      ! Month
  WinterDesignDay,                        ! Day Type
  0,                                      ! Daylight Saving Time Indicator
  Wetbulb,                                ! Humidity Indicating Type
  ,                                       ! Humidity Indicating Day Schedule Name
  DefaultMultipliers,                     ! Dry-Bulb Temperature Range Modifier Type
  ,                                       ! Dry-Bulb Temperature Range Modifier Schedule Name
  ASHRAEClearSky;                         ! Solar Model Indicator

OS:ComponentData,
  {28d95fba-1abe-4404-a85d-455c855a1c66}, ! Handle
  Component Data 1,                       ! Name
  {79be0d18-5146-427b-9933-27cf78c43250}, ! UUID
  {44d30d3e-7570-4c47-89a6-0011ee0ce7a3}, ! Version UUID
  1366307714,                             ! Creation Timestamp
  1366307714,                             ! Version Timestamp
  {db562f7d-311b-4f1e-a3fa-0e1214811e08}; ! Name of Object 1

