
OS:Version,
  {e4e08b54-8ba1-424c-ac57-8ac383eba92e}, ! Handle
  0.9.3;                                  ! Version Identifier

OS:SizingPeriod:DesignDay,
  {3fae1601-6d36-4511-b306-edcdbfed2b41}, ! Handle
  LANSING Ann Htg Wind 99.6% Condns WS=>MCDB, ! Name
  -4.7,                                   ! Maximum Dry-Bulb Temperature {C}
  0,                                      ! Daily Dry-Bulb Temperature Range {deltaC}
  -4.7,                                   ! Humidity Indicating Conditions at Maximum Dry-Bulb {BasedOnField A3}
  98287,                                  ! Barometric Pressure {Pa}
  12.7,                                   ! Wind Speed {m/s}
  280,                                    ! Wind Direction {deg}
  0,                                      ! Sky Clearness
  0,                                      ! Rain Indicator
  0,                                      ! Snow Indicator
  21,                                     ! Day of Month
  1,                                      ! Month
  WinterDesignDay,                        ! Day Type
  0,                                      ! Daylight Saving Time Indicator
  Wetbulb,                                ! Humidity Indicating Type
  ,                                       ! Humidity Indicating Day Schedule Name
  DefaultMultipliers,                     ! Dry-Bulb Temperature Range Modifier Type
  ,                                       ! Dry-Bulb Temperature Range Modifier Schedule Name
  ASHRAEClearSky;                         ! Solar Model Indicator

OS:ComponentData,
  {1aba068c-4406-4191-821b-8217df5bdb84}, ! Handle
  Component Data 1,                       ! Name
  {f6898921-0a3e-42ce-b362-7847d5db3674}, ! UUID
  {492a8617-4e8d-49ec-9af0-58a4b23d145c}, ! Version UUID
  1366308055,                             ! Creation Timestamp
  1366308055,                             ! Version Timestamp
  {3fae1601-6d36-4511-b306-edcdbfed2b41}; ! Name of Object 1

