
OS:Version,
  {71cd0d37-dbec-4183-afd8-2671219b3817}, ! Handle
  0.9.3;                                  ! Version Identifier

OS:SizingPeriod:DesignDay,
  {b6fc91c6-ecbc-4f5b-a1ab-eb07985d3f7d}, ! Handle
  Brunswick Malcolm Mckinnon Ap Ann Clg 2% Condns Enth=>MDB, ! Name
  30.1,                                   ! Maximum Dry-Bulb Temperature {C}
  7.7,                                    ! Daily Dry-Bulb Temperature Range {deltaC}
  80500,                                  ! Humidity Indicating Conditions at Maximum Dry-Bulb {BasedOnField A3}
  101277,                                 ! Barometric Pressure {Pa}
  4.5,                                    ! Wind Speed {m/s}
  250,                                    ! Wind Direction {deg}
  0,                                      ! Sky Clearness
  0,                                      ! Rain Indicator
  0,                                      ! Snow Indicator
  21,                                     ! Day of Month
  7,                                      ! Month
  SummerDesignDay,                        ! Day Type
  0,                                      ! Daylight Saving Time Indicator
  Enthalpy,                               ! Humidity Indicating Type
  ,                                       ! Humidity Indicating Day Schedule Name
  DefaultMultipliers,                     ! Dry-Bulb Temperature Range Modifier Type
  ,                                       ! Dry-Bulb Temperature Range Modifier Schedule Name
  ASHRAETau,                              ! Solar Model Indicator
  ,                                       ! Beam Solar Day Schedule Name
  ,                                       ! Diffuse Solar Day Schedule Name
  0.564,                                  ! ASHRAE Taub {dimensionless}
  1.805;                                  ! ASHRAE Taud {dimensionless}

OS:ComponentData,
  {4235f85b-8fb7-4682-94a3-f9e730f42a7e}, ! Handle
  Component Data 1,                       ! Name
  {268458a3-b06a-4458-acb9-211d723575b0}, ! UUID
  {fb21d704-1ccd-49bc-b4ef-5ead3b1008c0}, ! Version UUID
  1366306997,                             ! Creation Timestamp
  1366306997,                             ! Version Timestamp
  {b6fc91c6-ecbc-4f5b-a1ab-eb07985d3f7d}; ! Name of Object 1

