
OS:Version,
  {47bcec26-9b08-46b8-858c-41c6d89127f9}, ! Handle
  0.9.3;                                  ! Version Identifier

OS:SizingPeriod:DesignDay,
  {f4040230-b690-48c1-9593-29694a6efa94}, ! Handle
  Kaneohe Bay Mcas Ann Htg 99% Condns DB, ! Name
  19,                                     ! Maximum Dry-Bulb Temperature {C}
  0,                                      ! Daily Dry-Bulb Temperature Range {deltaC}
  19,                                     ! Humidity Indicating Conditions at Maximum Dry-Bulb {BasedOnField A3}
  101289,                                 ! Barometric Pressure {Pa}
  1.4,                                    ! Wind Speed {m/s}
  180,                                    ! Wind Direction {deg}
  0,                                      ! Sky Clearness
  0,                                      ! Rain Indicator
  0,                                      ! Snow Indicator
  21,                                     ! Day of Month
  2,                                      ! Month
  WinterDesignDay,                        ! Day Type
  0,                                      ! Daylight Saving Time Indicator
  Wetbulb,                                ! Humidity Indicating Type
  ,                                       ! Humidity Indicating Day Schedule Name
  DefaultMultipliers,                     ! Dry-Bulb Temperature Range Modifier Type
  ,                                       ! Dry-Bulb Temperature Range Modifier Schedule Name
  ASHRAEClearSky;                         ! Solar Model Indicator

OS:ComponentData,
  {2f60e8f1-32d5-46a6-b2b8-a94326610a65}, ! Handle
  Component Data 1,                       ! Name
  {0e9bfb96-1a33-40bc-b3f8-41f2991ecedc}, ! UUID
  {47a19eb0-bba2-41aa-9004-8971b6ab3b2b}, ! Version UUID
  1366307103,                             ! Creation Timestamp
  1366307103,                             ! Version Timestamp
  {f4040230-b690-48c1-9593-29694a6efa94}; ! Name of Object 1

