
OS:Version,
  {47a51f3d-6dc5-4230-a19d-31d144539f2a}, ! Handle
  0.9.3;                                  ! Version Identifier

OS:SizingPeriod:DesignDay,
  {84474ddb-2d4e-48ee-b0ff-22a32afea06a}, ! Handle
  Fort Smith Regional Ap Ann Clg 2% Condns DP=>MDB, ! Name
  28.3,                                   ! Maximum Dry-Bulb Temperature {C}
  11.5,                                   ! Daily Dry-Bulb Temperature Range {deltaC}
  23.5,                                   ! Humidity Indicating Conditions at Maximum Dry-Bulb {BasedOnField A3}
  99690,                                  ! Barometric Pressure {Pa}
  3.7,                                    ! Wind Speed {m/s}
  230,                                    ! Wind Direction {deg}
  0,                                      ! Sky Clearness
  0,                                      ! Rain Indicator
  0,                                      ! Snow Indicator
  21,                                     ! Day of Month
  7,                                      ! Month
  SummerDesignDay,                        ! Day Type
  0,                                      ! Daylight Saving Time Indicator
  Dewpoint,                               ! Humidity Indicating Type
  ,                                       ! Humidity Indicating Day Schedule Name
  DefaultMultipliers,                     ! Dry-Bulb Temperature Range Modifier Type
  ,                                       ! Dry-Bulb Temperature Range Modifier Schedule Name
  ASHRAETau,                              ! Solar Model Indicator
  ,                                       ! Beam Solar Day Schedule Name
  ,                                       ! Diffuse Solar Day Schedule Name
  0.49,                                   ! ASHRAE Taub {dimensionless}
  1.983;                                  ! ASHRAE Taud {dimensionless}

OS:ComponentData,
  {402a8846-9306-4cd9-b215-9f0b0f66e912}, ! Handle
  Component Data 1,                       ! Name
  {cfc716d3-b9b4-4736-b6e3-dbcc3f67f6ea}, ! UUID
  {5c950be9-04d8-4fca-b9fe-384813ad5d52}, ! Version UUID
  1366306213,                             ! Creation Timestamp
  1366306213,                             ! Version Timestamp
  {84474ddb-2d4e-48ee-b0ff-22a32afea06a}; ! Name of Object 1

