
OS:Version,
  {ad79153a-27cd-4047-9ea3-522a9d5124c4}, ! Handle
  0.9.3;                                  ! Version Identifier

OS:SizingPeriod:DesignDay,
  {c2a8bacb-2b15-4f8a-b459-63b7b78fa23a}, ! Handle
  LITTLE_ROCK Ann Htg Wind 99% Condns WS=>MCDB, ! Name
  7.8,                                    ! Maximum Dry-Bulb Temperature {C}
  0,                                      ! Daily Dry-Bulb Temperature Range {deltaC}
  7.8,                                    ! Humidity Indicating Conditions at Maximum Dry-Bulb {BasedOnField A3}
  100356,                                 ! Barometric Pressure {Pa}
  8.4,                                    ! Wind Speed {m/s}
  350,                                    ! Wind Direction {deg}
  0,                                      ! Sky Clearness
  0,                                      ! Rain Indicator
  0,                                      ! Snow Indicator
  21,                                     ! Day of Month
  1,                                      ! Month
  WinterDesignDay,                        ! Day Type
  0,                                      ! Daylight Saving Time Indicator
  Wetbulb,                                ! Humidity Indicating Type
  ,                                       ! Humidity Indicating Day Schedule Name
  DefaultMultipliers,                     ! Dry-Bulb Temperature Range Modifier Type
  ,                                       ! Dry-Bulb Temperature Range Modifier Schedule Name
  ASHRAEClearSky;                         ! Solar Model Indicator

OS:ComponentData,
  {8cb2f1b1-a036-45a9-826e-35df72c7d3fb}, ! Handle
  Component Data 1,                       ! Name
  {6d634ce9-8a81-4b5b-b5b4-07d850657f70}, ! UUID
  {2929d111-720c-4212-b6a5-d36ab1f02912}, ! Version UUID
  1366306231,                             ! Creation Timestamp
  1366306231,                             ! Version Timestamp
  {c2a8bacb-2b15-4f8a-b459-63b7b78fa23a}; ! Name of Object 1

