
OS:Version,
  {568131f7-72da-4383-9bbf-ec941934b010}, ! Handle
  0.9.3;                                  ! Version Identifier

OS:SizingPeriod:DesignDay,
  {bb01ec30-90dd-4d73-9c12-c321cd76b6c5}, ! Handle
  EAGLE Ann Htg 99% Condns DB,            ! Name
  -19,                                    ! Maximum Dry-Bulb Temperature {C}
  0,                                      ! Daily Dry-Bulb Temperature Range {deltaC}
  -19,                                    ! Humidity Indicating Conditions at Maximum Dry-Bulb {BasedOnField A3}
  79643,                                  ! Barometric Pressure {Pa}
  0.7,                                    ! Wind Speed {m/s}
  120,                                    ! Wind Direction {deg}
  0,                                      ! Sky Clearness
  0,                                      ! Rain Indicator
  0,                                      ! Snow Indicator
  21,                                     ! Day of Month
  1,                                      ! Month
  WinterDesignDay,                        ! Day Type
  0,                                      ! Daylight Saving Time Indicator
  Wetbulb,                                ! Humidity Indicating Type
  ,                                       ! Humidity Indicating Day Schedule Name
  DefaultMultipliers,                     ! Dry-Bulb Temperature Range Modifier Type
  ,                                       ! Dry-Bulb Temperature Range Modifier Schedule Name
  ASHRAEClearSky;                         ! Solar Model Indicator

OS:ComponentData,
  {b183875d-a4a1-4a2e-b649-ac8153509c5a}, ! Handle
  Component Data 1,                       ! Name
  {4a616462-ace6-4441-80b3-c90bc5b20de0}, ! UUID
  {3b8febe1-651a-4c2f-822a-1277601ef4f6}, ! Version UUID
  1366306683,                             ! Creation Timestamp
  1366306683,                             ! Version Timestamp
  {bb01ec30-90dd-4d73-9c12-c321cd76b6c5}; ! Name of Object 1

