
OS:Version,
  {e75b06d0-63f7-4c9a-9344-488e32084012}, ! Handle
  0.9.3;                                  ! Version Identifier

OS:SizingPeriod:DesignDay,
  {fcfc6e83-3603-4a0e-9bfd-97b1c9e82ad4}, ! Handle
  Fayetteville Pope Afb Ann Htg Wind 99% Condns WS=>MCDB, ! Name
  11.7,                                   ! Maximum Dry-Bulb Temperature {C}
  0,                                      ! Daily Dry-Bulb Temperature Range {deltaC}
  11.7,                                   ! Humidity Indicating Conditions at Maximum Dry-Bulb {BasedOnField A3}
  100535,                                 ! Barometric Pressure {Pa}
  8.3,                                    ! Wind Speed {m/s}
  0,                                      ! Wind Direction {deg}
  0,                                      ! Sky Clearness
  0,                                      ! Rain Indicator
  0,                                      ! Snow Indicator
  21,                                     ! Day of Month
  1,                                      ! Month
  WinterDesignDay,                        ! Day Type
  0,                                      ! Daylight Saving Time Indicator
  Wetbulb,                                ! Humidity Indicating Type
  ,                                       ! Humidity Indicating Day Schedule Name
  DefaultMultipliers,                     ! Dry-Bulb Temperature Range Modifier Type
  ,                                       ! Dry-Bulb Temperature Range Modifier Schedule Name
  ASHRAEClearSky;                         ! Solar Model Indicator

OS:ComponentData,
  {e6c52e5e-661c-4dd1-9315-9857ceb26448}, ! Handle
  Component Data 1,                       ! Name
  {a984718e-bea7-497a-b328-a40449e93dd2}, ! UUID
  {c3c46a97-5544-4066-8697-2b40f67afc90}, ! Version UUID
  1366308910,                             ! Creation Timestamp
  1366308910,                             ! Version Timestamp
  {fcfc6e83-3603-4a0e-9bfd-97b1c9e82ad4}; ! Name of Object 1

