
OS:Version,
  {1b5ec98b-2e4c-49e8-b93b-cf35aeae68ee}, ! Handle
  0.9.3;                                  ! Version Identifier

OS:SizingPeriod:DesignDay,
  {a001a283-6e21-46ff-b2fb-df343a7e9fc0}, ! Handle
  La Grande Muni Ap Ann Hum_n 99.6% Condns DP=>MCDB, ! Name
  -11.4,                                  ! Maximum Dry-Bulb Temperature {C}
  0,                                      ! Daily Dry-Bulb Temperature Range {deltaC}
  -16.9,                                  ! Humidity Indicating Conditions at Maximum Dry-Bulb {BasedOnField A3}
  91777,                                  ! Barometric Pressure {Pa}
  2.1,                                    ! Wind Speed {m/s}
  320,                                    ! Wind Direction {deg}
  0,                                      ! Sky Clearness
  0,                                      ! Rain Indicator
  0,                                      ! Snow Indicator
  21,                                     ! Day of Month
  12,                                     ! Month
  WinterDesignDay,                        ! Day Type
  0,                                      ! Daylight Saving Time Indicator
  Dewpoint,                               ! Humidity Indicating Type
  ,                                       ! Humidity Indicating Day Schedule Name
  DefaultMultipliers,                     ! Dry-Bulb Temperature Range Modifier Type
  ,                                       ! Dry-Bulb Temperature Range Modifier Schedule Name
  ASHRAEClearSky;                         ! Solar Model Indicator

OS:ComponentData,
  {2735ce0b-7324-4891-ba37-4513746449e7}, ! Handle
  Component Data 1,                       ! Name
  {a17e1f65-cdda-4d3c-9d26-707082134f1f}, ! UUID
  {a4cbe8ca-2040-43d5-a7f0-31f55f646dd0}, ! Version UUID
  1366310020,                             ! Creation Timestamp
  1366310020,                             ! Version Timestamp
  {a001a283-6e21-46ff-b2fb-df343a7e9fc0}; ! Name of Object 1

