
OS:Version,
  {949fb70d-5610-4c60-9e97-dd7687169b7b}, ! Handle
  0.9.3;                                  ! Version Identifier

OS:SizingPeriod:DesignDay,
  {5c1d3d52-bda6-4f8d-9684-491b486061fb}, ! Handle
  FAIRBANKS Ann Htg 99.6% Condns DB,      ! Name
  -41.9,                                  ! Maximum Dry-Bulb Temperature {C}
  0,                                      ! Daily Dry-Bulb Temperature Range {deltaC}
  -41.9,                                  ! Humidity Indicating Conditions at Maximum Dry-Bulb {BasedOnField A3}
  99678,                                  ! Barometric Pressure {Pa}
  0.3,                                    ! Wind Speed {m/s}
  20,                                     ! Wind Direction {deg}
  0,                                      ! Sky Clearness
  0,                                      ! Rain Indicator
  0,                                      ! Snow Indicator
  21,                                     ! Day of Month
  1,                                      ! Month
  WinterDesignDay,                        ! Day Type
  0,                                      ! Daylight Saving Time Indicator
  Wetbulb,                                ! Humidity Indicating Type
  ,                                       ! Humidity Indicating Day Schedule Name
  DefaultMultipliers,                     ! Dry-Bulb Temperature Range Modifier Type
  ,                                       ! Dry-Bulb Temperature Range Modifier Schedule Name
  ASHRAEClearSky;                         ! Solar Model Indicator

OS:ComponentData,
  {d77b5bb2-bb61-44cd-9bcf-3e8979d663b8}, ! Handle
  Component Data 1,                       ! Name
  {324a9470-f4f7-4a56-a89b-0e1f514404b5}, ! UUID
  {682fa06b-6b1a-41f6-9630-033a1197b0c8}, ! Version UUID
  1366305247,                             ! Creation Timestamp
  1366305247,                             ! Version Timestamp
  {5c1d3d52-bda6-4f8d-9684-491b486061fb}; ! Name of Object 1

