
OS:Version,
  {fd4e93f4-cdda-4e90-9dd7-14e6e64400a0}, ! Handle
  0.9.3;                                  ! Version Identifier

OS:SizingPeriod:DesignDay,
  {b11568be-5508-49dc-b93b-e6594dbc653a}, ! Handle
  HOUSTON Ann Clg 2% Condns Enth=>MDB,    ! Name
  30.9,                                   ! Maximum Dry-Bulb Temperature {C}
  10.1,                                   ! Daily Dry-Bulb Temperature Range {deltaC}
  80200,                                  ! Humidity Indicating Conditions at Maximum Dry-Bulb {BasedOnField A3}
  100929,                                 ! Barometric Pressure {Pa}
  3.5,                                    ! Wind Speed {m/s}
  170,                                    ! Wind Direction {deg}
  0,                                      ! Sky Clearness
  0,                                      ! Rain Indicator
  0,                                      ! Snow Indicator
  21,                                     ! Day of Month
  7,                                      ! Month
  SummerDesignDay,                        ! Day Type
  0,                                      ! Daylight Saving Time Indicator
  Enthalpy,                               ! Humidity Indicating Type
  ,                                       ! Humidity Indicating Day Schedule Name
  DefaultMultipliers,                     ! Dry-Bulb Temperature Range Modifier Type
  ,                                       ! Dry-Bulb Temperature Range Modifier Schedule Name
  ASHRAETau,                              ! Solar Model Indicator
  ,                                       ! Beam Solar Day Schedule Name
  ,                                       ! Diffuse Solar Day Schedule Name
  0.499,                                  ! ASHRAE Taub {dimensionless}
  1.97;                                   ! ASHRAE Taud {dimensionless}

OS:ComponentData,
  {dd23e0da-01ef-481f-b4f4-4b217aa105a4}, ! Handle
  Component Data 1,                       ! Name
  {98d4b86c-c6b4-4952-b3c8-dbc19870ef11}, ! UUID
  {5393aea7-d8bd-4100-b7ab-d6a1f2ded2d7}, ! Version UUID
  1366310756,                             ! Creation Timestamp
  1366310756,                             ! Version Timestamp
  {b11568be-5508-49dc-b93b-e6594dbc653a}; ! Name of Object 1

