
OS:Version,
  {88f133d8-3b31-42fb-b9f3-c821bc8ee13c}, ! Handle
  0.9.3;                                  ! Version Identifier

OS:SizingPeriod:DesignDay,
  {528f8463-7177-4cb2-84a4-5cc1fa133eda}, ! Handle
  BILLINGS Ann Clg 2% Condns DB=>MWB,     ! Name
  31.1,                                   ! Maximum Dry-Bulb Temperature {C}
  14.5,                                   ! Daily Dry-Bulb Temperature Range {deltaC}
  16.3,                                   ! Humidity Indicating Conditions at Maximum Dry-Bulb {BasedOnField A3}
  88919,                                  ! Barometric Pressure {Pa}
  4.2,                                    ! Wind Speed {m/s}
  50,                                     ! Wind Direction {deg}
  0,                                      ! Sky Clearness
  0,                                      ! Rain Indicator
  0,                                      ! Snow Indicator
  21,                                     ! Day of Month
  7,                                      ! Month
  SummerDesignDay,                        ! Day Type
  0,                                      ! Daylight Saving Time Indicator
  Wetbulb,                                ! Humidity Indicating Type
  ,                                       ! Humidity Indicating Day Schedule Name
  DefaultMultipliers,                     ! Dry-Bulb Temperature Range Modifier Type
  ,                                       ! Dry-Bulb Temperature Range Modifier Schedule Name
  ASHRAETau,                              ! Solar Model Indicator
  ,                                       ! Beam Solar Day Schedule Name
  ,                                       ! Diffuse Solar Day Schedule Name
  0.405,                                  ! ASHRAE Taub {dimensionless}
  2.084;                                  ! ASHRAE Taud {dimensionless}

OS:ComponentData,
  {212663e4-730f-4af1-9931-458fae14df9a}, ! Handle
  Component Data 1,                       ! Name
  {4fdc58f8-a4b5-471a-9fb0-6f9f69f26bda}, ! UUID
  {204e2bee-e05d-4c0c-a7d7-96f5fdb8e0b9}, ! Version UUID
  1366308712,                             ! Creation Timestamp
  1366308712,                             ! Version Timestamp
  {528f8463-7177-4cb2-84a4-5cc1fa133eda}; ! Name of Object 1

