
OS:Version,
  {0a5b2a80-a778-452a-8e45-e40c687d0f99}, ! Handle
  0.9.3;                                  ! Version Identifier

OS:SizingPeriod:DesignDay,
  {2bc5a332-f83b-4007-bb1e-fa721269d0dd}, ! Handle
  ANCHORAGE Ann Clg .4% Condns Enth=>MDB, ! Name
  20.7,                                   ! Maximum Dry-Bulb Temperature {C}
  6.6,                                    ! Daily Dry-Bulb Temperature Range {deltaC}
  43900,                                  ! Humidity Indicating Conditions at Maximum Dry-Bulb {BasedOnField A3}
  100905,                                 ! Barometric Pressure {Pa}
  3.6,                                    ! Wind Speed {m/s}
  300,                                    ! Wind Direction {deg}
  0,                                      ! Sky Clearness
  0,                                      ! Rain Indicator
  0,                                      ! Snow Indicator
  21,                                     ! Day of Month
  7,                                      ! Month
  SummerDesignDay,                        ! Day Type
  0,                                      ! Daylight Saving Time Indicator
  Enthalpy,                               ! Humidity Indicating Type
  ,                                       ! Humidity Indicating Day Schedule Name
  DefaultMultipliers,                     ! Dry-Bulb Temperature Range Modifier Type
  ,                                       ! Dry-Bulb Temperature Range Modifier Schedule Name
  ASHRAETau,                              ! Solar Model Indicator
  ,                                       ! Beam Solar Day Schedule Name
  ,                                       ! Diffuse Solar Day Schedule Name
  0.387,                                  ! ASHRAE Taub {dimensionless}
  2.172;                                  ! ASHRAE Taud {dimensionless}

OS:ComponentData,
  {d7693eed-9e72-489c-b107-42608ee6dd63}, ! Handle
  Component Data 1,                       ! Name
  {594d013d-061b-4ae8-b946-e40f295d879d}, ! UUID
  {4e547c82-8a7a-4dc5-9300-6c5c7f027e31}, ! Version UUID
  1366304704,                             ! Creation Timestamp
  1366304704,                             ! Version Timestamp
  {2bc5a332-f83b-4007-bb1e-fa721269d0dd}; ! Name of Object 1

