
OS:Version,
  {d9b19e99-e10b-4f37-af70-7bdd4f622e1a}, ! Handle
  0.9.3;                                  ! Version Identifier

OS:SizingPeriod:DesignDay,
  {988a8b4f-091a-41cf-8cf9-cb13a44cdf50}, ! Handle
  International Falls Ann Hum_n 99% Condns DP=>MCDB, ! Name
  -28.8,                                  ! Maximum Dry-Bulb Temperature {C}
  0,                                      ! Daily Dry-Bulb Temperature Range {deltaC}
  -32.9,                                  ! Humidity Indicating Conditions at Maximum Dry-Bulb {BasedOnField A3}
  97063,                                  ! Barometric Pressure {Pa}
  2.4,                                    ! Wind Speed {m/s}
  210,                                    ! Wind Direction {deg}
  0,                                      ! Sky Clearness
  0,                                      ! Rain Indicator
  0,                                      ! Snow Indicator
  21,                                     ! Day of Month
  1,                                      ! Month
  WinterDesignDay,                        ! Day Type
  0,                                      ! Daylight Saving Time Indicator
  Dewpoint,                               ! Humidity Indicating Type
  ,                                       ! Humidity Indicating Day Schedule Name
  DefaultMultipliers,                     ! Dry-Bulb Temperature Range Modifier Type
  ,                                       ! Dry-Bulb Temperature Range Modifier Schedule Name
  ASHRAEClearSky;                         ! Solar Model Indicator

OS:ComponentData,
  {02e20a3b-882a-42db-bfb3-1db18ed5a4e7}, ! Handle
  Component Data 1,                       ! Name
  {9ac48f92-1966-4914-8f83-30605de08a69}, ! UUID
  {21ef89ff-7363-4977-ab9a-c8a6e7da4f93}, ! Version UUID
  1366308271,                             ! Creation Timestamp
  1366308271,                             ! Version Timestamp
  {988a8b4f-091a-41cf-8cf9-cb13a44cdf50}; ! Name of Object 1

