
OS:Version,
  {c6e67479-a014-4e24-82de-19640a64b0ad}, ! Handle
  0.9.3;                                  ! Version Identifier

OS:SizingPeriod:DesignDay,
  {f2011cfe-06a3-448f-806f-61c7a3d3969d}, ! Handle
  Akron Washington Co Ap Ann Clg 1% Condns DB=>MWB, ! Name
  32.9,                                   ! Maximum Dry-Bulb Temperature {C}
  14.3,                                   ! Daily Dry-Bulb Temperature Range {deltaC}
  17.2,                                   ! Humidity Indicating Conditions at Maximum Dry-Bulb {BasedOnField A3}
  85379,                                  ! Barometric Pressure {Pa}
  5.1,                                    ! Wind Speed {m/s}
  130,                                    ! Wind Direction {deg}
  0,                                      ! Sky Clearness
  0,                                      ! Rain Indicator
  0,                                      ! Snow Indicator
  21,                                     ! Day of Month
  7,                                      ! Month
  SummerDesignDay,                        ! Day Type
  0,                                      ! Daylight Saving Time Indicator
  Wetbulb,                                ! Humidity Indicating Type
  ,                                       ! Humidity Indicating Day Schedule Name
  DefaultMultipliers,                     ! Dry-Bulb Temperature Range Modifier Type
  ,                                       ! Dry-Bulb Temperature Range Modifier Schedule Name
  ASHRAETau,                              ! Solar Model Indicator
  ,                                       ! Beam Solar Day Schedule Name
  ,                                       ! Diffuse Solar Day Schedule Name
  0.414,                                  ! ASHRAE Taub {dimensionless}
  2.041;                                  ! ASHRAE Taud {dimensionless}

OS:ComponentData,
  {7a1897de-40f2-4fe3-95ed-cc08dd722dcc}, ! Handle
  Component Data 1,                       ! Name
  {9786e883-9eaa-4a95-b2c8-a6b7e33cbba6}, ! UUID
  {fae1ed66-12a5-4ee7-9d20-53f137186269}, ! Version UUID
  1366306635,                             ! Creation Timestamp
  1366306635,                             ! Version Timestamp
  {f2011cfe-06a3-448f-806f-61c7a3d3969d}; ! Name of Object 1

