
OS:Version,
  {86aa8a7e-ec3c-4309-8e6a-4b17e63ba5fa}, ! Handle
  0.9.3;                                  ! Version Identifier

OS:SizingPeriod:DesignDay,
  {4c89148d-68d4-4707-8b0e-dc9fe3cbda64}, ! Handle
  Beaumont/Port Arthur Ann Htg 99.6% Condns DB, ! Name
  -0.8,                                   ! Maximum Dry-Bulb Temperature {C}
  0,                                      ! Daily Dry-Bulb Temperature Range {deltaC}
  -0.8,                                   ! Humidity Indicating Conditions at Maximum Dry-Bulb {BasedOnField A3}
  101241,                                 ! Barometric Pressure {Pa}
  4.2,                                    ! Wind Speed {m/s}
  0,                                      ! Wind Direction {deg}
  0,                                      ! Sky Clearness
  0,                                      ! Rain Indicator
  0,                                      ! Snow Indicator
  21,                                     ! Day of Month
  1,                                      ! Month
  WinterDesignDay,                        ! Day Type
  0,                                      ! Daylight Saving Time Indicator
  Wetbulb,                                ! Humidity Indicating Type
  ,                                       ! Humidity Indicating Day Schedule Name
  DefaultMultipliers,                     ! Dry-Bulb Temperature Range Modifier Type
  ,                                       ! Dry-Bulb Temperature Range Modifier Schedule Name
  ASHRAEClearSky;                         ! Solar Model Indicator

OS:ComponentData,
  {ec9ebfde-839f-4d2c-b143-4912054663ca}, ! Handle
  Component Data 1,                       ! Name
  {1df67e87-5e0c-4635-a6d3-24a6e1889d34}, ! UUID
  {c883789b-22fd-4607-87f8-ae3baf6ce7de}, ! Version UUID
  1366310847,                             ! Creation Timestamp
  1366310847,                             ! Version Timestamp
  {4c89148d-68d4-4707-8b0e-dc9fe3cbda64}; ! Name of Object 1

