
OS:Version,
  {f7ce952a-4d7a-4fda-b4c3-22a872393567}, ! Handle
  0.9.3;                                  ! Version Identifier

OS:SizingPeriod:DesignDay,
  {a728ffec-34d9-43fe-abf3-cb97b8599059}, ! Handle
  Flying Cloud Ann Hum_n 99% Condns DP=>MCDB, ! Name
  -19.7,                                  ! Maximum Dry-Bulb Temperature {C}
  0,                                      ! Daily Dry-Bulb Temperature Range {deltaC}
  -24.1,                                  ! Humidity Indicating Conditions at Maximum Dry-Bulb {BasedOnField A3}
  97971,                                  ! Barometric Pressure {Pa}
  3.2,                                    ! Wind Speed {m/s}
  250,                                    ! Wind Direction {deg}
  0,                                      ! Sky Clearness
  0,                                      ! Rain Indicator
  0,                                      ! Snow Indicator
  21,                                     ! Day of Month
  1,                                      ! Month
  WinterDesignDay,                        ! Day Type
  0,                                      ! Daylight Saving Time Indicator
  Dewpoint,                               ! Humidity Indicating Type
  ,                                       ! Humidity Indicating Day Schedule Name
  DefaultMultipliers,                     ! Dry-Bulb Temperature Range Modifier Type
  ,                                       ! Dry-Bulb Temperature Range Modifier Schedule Name
  ASHRAEClearSky;                         ! Solar Model Indicator

OS:ComponentData,
  {aa034e8f-3050-4b02-8ae2-678080d015b4}, ! Handle
  Component Data 1,                       ! Name
  {43952ba6-b798-4555-badd-ae160f2576c3}, ! UUID
  {1751ecfc-5860-4f23-84a9-7b26e59077be}, ! Version UUID
  1366308211,                             ! Creation Timestamp
  1366308211,                             ! Version Timestamp
  {a728ffec-34d9-43fe-abf3-cb97b8599059}; ! Name of Object 1

