
OS:Version,
  {8bf2c4d4-2403-4ee6-baac-06722f2e7e6b}, ! Handle
  0.9.3;                                  ! Version Identifier

OS:SizingPeriod:DesignDay,
  {88f9d00c-897d-4d61-aa90-41d4cf4cbaa7}, ! Handle
  Huntsville Intl Jones Field Ann Clg .4% Condns DB=>MWB, ! Name
  34.8,                                   ! Maximum Dry-Bulb Temperature {C}
  10.4,                                   ! Daily Dry-Bulb Temperature Range {deltaC}
  23.9,                                   ! Humidity Indicating Conditions at Maximum Dry-Bulb {BasedOnField A3}
  99063,                                  ! Barometric Pressure {Pa}
  3.6,                                    ! Wind Speed {m/s}
  270,                                    ! Wind Direction {deg}
  0,                                      ! Sky Clearness
  0,                                      ! Rain Indicator
  0,                                      ! Snow Indicator
  21,                                     ! Day of Month
  7,                                      ! Month
  SummerDesignDay,                        ! Day Type
  0,                                      ! Daylight Saving Time Indicator
  Wetbulb,                                ! Humidity Indicating Type
  ,                                       ! Humidity Indicating Day Schedule Name
  DefaultMultipliers,                     ! Dry-Bulb Temperature Range Modifier Type
  ,                                       ! Dry-Bulb Temperature Range Modifier Schedule Name
  ASHRAETau,                              ! Solar Model Indicator
  ,                                       ! Beam Solar Day Schedule Name
  ,                                       ! Diffuse Solar Day Schedule Name
  0.552,                                  ! ASHRAE Taub {dimensionless}
  1.785;                                  ! ASHRAE Taud {dimensionless}

OS:ComponentData,
  {0bab62d4-3ca8-48c9-a865-82a483c2774d}, ! Handle
  Component Data 1,                       ! Name
  {655c88da-68fe-4838-a087-5a283b1a4695}, ! UUID
  {ec0dda3e-b1ad-493b-bed0-a34c2dcf9995}, ! Version UUID
  1366305670,                             ! Creation Timestamp
  1366305670,                             ! Version Timestamp
  {88f9d00c-897d-4d61-aa90-41d4cf4cbaa7}; ! Name of Object 1

