
OS:Version,
  {705e901a-9286-4ea4-b06a-b81a0394458b}, ! Handle
  0.9.3;                                  ! Version Identifier

OS:SizingPeriod:DesignDay,
  {f6bb9020-1b0a-4589-ba15-b10d7375bf8d}, ! Handle
  Jackson Reynolds Field Ann Clg .4% Condns WB=>MDB, ! Name
  29.4,                                   ! Maximum Dry-Bulb Temperature {C}
  11.3,                                   ! Daily Dry-Bulb Temperature Range {deltaC}
  24.8,                                   ! Humidity Indicating Conditions at Maximum Dry-Bulb {BasedOnField A3}
  97726,                                  ! Barometric Pressure {Pa}
  4.6,                                    ! Wind Speed {m/s}
  220,                                    ! Wind Direction {deg}
  0,                                      ! Sky Clearness
  0,                                      ! Rain Indicator
  0,                                      ! Snow Indicator
  21,                                     ! Day of Month
  7,                                      ! Month
  SummerDesignDay,                        ! Day Type
  0,                                      ! Daylight Saving Time Indicator
  Wetbulb,                                ! Humidity Indicating Type
  ,                                       ! Humidity Indicating Day Schedule Name
  DefaultMultipliers,                     ! Dry-Bulb Temperature Range Modifier Type
  ,                                       ! Dry-Bulb Temperature Range Modifier Schedule Name
  ASHRAETau,                              ! Solar Model Indicator
  ,                                       ! Beam Solar Day Schedule Name
  ,                                       ! Diffuse Solar Day Schedule Name
  0.429,                                  ! ASHRAE Taub {dimensionless}
  2.131;                                  ! ASHRAE Taud {dimensionless}

OS:ComponentData,
  {ee7e74ef-73af-45a3-9a70-2b5af558bc8d}, ! Handle
  Component Data 1,                       ! Name
  {378ff1df-1c74-4594-a40c-c1fea3c0915f}, ! UUID
  {3f68b11c-4470-4787-a702-c6bd785ca796}, ! Version UUID
  1366308045,                             ! Creation Timestamp
  1366308045,                             ! Version Timestamp
  {f6bb9020-1b0a-4589-ba15-b10d7375bf8d}; ! Name of Object 1

