
OS:Version,
  {9b1e4563-0695-49fb-b1c7-5c80e743f07c}, ! Handle
  0.9.3;                                  ! Version Identifier

OS:SizingPeriod:DesignDay,
  {d27e3a40-a40d-4d93-9815-18d08bb7bb8c}, ! Handle
  KODIAK Ann Clg 1% Condns DP=>MDB,       ! Name
  15.2,                                   ! Maximum Dry-Bulb Temperature {C}
  6.4,                                    ! Daily Dry-Bulb Temperature Range {deltaC}
  12.7,                                   ! Humidity Indicating Conditions at Maximum Dry-Bulb {BasedOnField A3}
  100917,                                 ! Barometric Pressure {Pa}
  5.2,                                    ! Wind Speed {m/s}
  310,                                    ! Wind Direction {deg}
  0,                                      ! Sky Clearness
  0,                                      ! Rain Indicator
  0,                                      ! Snow Indicator
  21,                                     ! Day of Month
  8,                                      ! Month
  SummerDesignDay,                        ! Day Type
  0,                                      ! Daylight Saving Time Indicator
  Dewpoint,                               ! Humidity Indicating Type
  ,                                       ! Humidity Indicating Day Schedule Name
  DefaultMultipliers,                     ! Dry-Bulb Temperature Range Modifier Type
  ,                                       ! Dry-Bulb Temperature Range Modifier Schedule Name
  ASHRAETau,                              ! Solar Model Indicator
  ,                                       ! Beam Solar Day Schedule Name
  ,                                       ! Diffuse Solar Day Schedule Name
  0.36,                                   ! ASHRAE Taub {dimensionless}
  2.361;                                  ! ASHRAE Taud {dimensionless}

OS:ComponentData,
  {0d42adbe-40bf-47d5-8262-2b40c6f919db}, ! Handle
  Component Data 1,                       ! Name
  {6d124bd4-2268-4f89-9e64-3ca638b7cd90}, ! UUID
  {15266a61-e8e6-4f2b-a13b-28cd1afc61d6}, ! Version UUID
  1366305371,                             ! Creation Timestamp
  1366305371,                             ! Version Timestamp
  {d27e3a40-a40d-4d93-9815-18d08bb7bb8c}; ! Name of Object 1

