
OS:Version,
  {e9dcb045-2efe-483c-a1e5-2c9c1fd7bf05}, ! Handle
  0.9.3;                                  ! Version Identifier

OS:SizingPeriod:DesignDay,
  {127c6272-5390-48c4-8a65-4ffa24066725}, ! Handle
  Clovis Muni   Awos Ann Clg .4% Condns DP=>MDB, ! Name
  23.3,                                   ! Maximum Dry-Bulb Temperature {C}
  15.4,                                   ! Daily Dry-Bulb Temperature Range {deltaC}
  18.6,                                   ! Humidity Indicating Conditions at Maximum Dry-Bulb {BasedOnField A3}
  86821,                                  ! Barometric Pressure {Pa}
  5.9,                                    ! Wind Speed {m/s}
  170,                                    ! Wind Direction {deg}
  0,                                      ! Sky Clearness
  0,                                      ! Rain Indicator
  0,                                      ! Snow Indicator
  21,                                     ! Day of Month
  7,                                      ! Month
  SummerDesignDay,                        ! Day Type
  0,                                      ! Daylight Saving Time Indicator
  Dewpoint,                               ! Humidity Indicating Type
  ,                                       ! Humidity Indicating Day Schedule Name
  DefaultMultipliers,                     ! Dry-Bulb Temperature Range Modifier Type
  ,                                       ! Dry-Bulb Temperature Range Modifier Schedule Name
  ASHRAETau,                              ! Solar Model Indicator
  ,                                       ! Beam Solar Day Schedule Name
  ,                                       ! Diffuse Solar Day Schedule Name
  0.392,                                  ! ASHRAE Taub {dimensionless}
  2.203;                                  ! ASHRAE Taud {dimensionless}

OS:ComponentData,
  {e18d5349-3e41-4e4c-a099-18de288586aa}, ! Handle
  Component Data 1,                       ! Name
  {462a19bd-a1d8-439b-a23b-2ec8be8f017e}, ! UUID
  {bd6af689-d66a-406b-8184-da9e64bc5082}, ! Version UUID
  1366309397,                             ! Creation Timestamp
  1366309397,                             ! Version Timestamp
  {127c6272-5390-48c4-8a65-4ffa24066725}; ! Name of Object 1

