
OS:Version,
  {c7d76101-9157-4df3-89dd-d1ef16bbf616}, ! Handle
  0.9.3;                                  ! Version Identifier

OS:SizingPeriod:DesignDay,
  {debc0363-4a85-4f7d-8733-0b62fc415380}, ! Handle
  KANSAS_CITY Ann Hum_n 99% Condns DP=>MCDB, ! Name
  -13.8,                                  ! Maximum Dry-Bulb Temperature {C}
  0,                                      ! Daily Dry-Bulb Temperature Range {deltaC}
  -19.7,                                  ! Humidity Indicating Conditions at Maximum Dry-Bulb {BasedOnField A3}
  97598,                                  ! Barometric Pressure {Pa}
  4.6,                                    ! Wind Speed {m/s}
  340,                                    ! Wind Direction {deg}
  0,                                      ! Sky Clearness
  0,                                      ! Rain Indicator
  0,                                      ! Snow Indicator
  21,                                     ! Day of Month
  1,                                      ! Month
  WinterDesignDay,                        ! Day Type
  0,                                      ! Daylight Saving Time Indicator
  Dewpoint,                               ! Humidity Indicating Type
  ,                                       ! Humidity Indicating Day Schedule Name
  DefaultMultipliers,                     ! Dry-Bulb Temperature Range Modifier Type
  ,                                       ! Dry-Bulb Temperature Range Modifier Schedule Name
  ASHRAEClearSky;                         ! Solar Model Indicator

OS:ComponentData,
  {814220e5-225d-4f38-bbf8-046790ce43b5}, ! Handle
  Component Data 1,                       ! Name
  {806dbeb8-1dc6-4df7-99ca-6bdec84c0e7d}, ! UUID
  {bca3d84b-c7d3-4059-a974-9dc98fecbe25}, ! Version UUID
  1366308520,                             ! Creation Timestamp
  1366308520,                             ! Version Timestamp
  {debc0363-4a85-4f7d-8733-0b62fc415380}; ! Name of Object 1

