
OS:Version,
  {9c5569b5-f984-46a3-bd08-590f877cd501}, ! Handle
  0.9.3;                                  ! Version Identifier

OS:SizingPeriod:DesignDay,
  {8e4366f7-610c-41ba-86b5-a5173ed37eb5}, ! Handle
  ATLANTA Ann Clg 1% Condns WB=>MDB,      ! Name
  30.3,                                   ! Maximum Dry-Bulb Temperature {C}
  9.5,                                    ! Daily Dry-Bulb Temperature Range {deltaC}
  24.5,                                   ! Humidity Indicating Conditions at Maximum Dry-Bulb {BasedOnField A3}
  97598,                                  ! Barometric Pressure {Pa}
  4,                                      ! Wind Speed {m/s}
  300,                                    ! Wind Direction {deg}
  0,                                      ! Sky Clearness
  0,                                      ! Rain Indicator
  0,                                      ! Snow Indicator
  21,                                     ! Day of Month
  7,                                      ! Month
  SummerDesignDay,                        ! Day Type
  0,                                      ! Daylight Saving Time Indicator
  Wetbulb,                                ! Humidity Indicating Type
  ,                                       ! Humidity Indicating Day Schedule Name
  DefaultMultipliers,                     ! Dry-Bulb Temperature Range Modifier Type
  ,                                       ! Dry-Bulb Temperature Range Modifier Schedule Name
  ASHRAETau,                              ! Solar Model Indicator
  ,                                       ! Beam Solar Day Schedule Name
  ,                                       ! Diffuse Solar Day Schedule Name
  0.556,                                  ! ASHRAE Taub {dimensionless}
  1.779;                                  ! ASHRAE Taud {dimensionless}

OS:ComponentData,
  {f2389df3-15ae-413c-811e-db5ed3b005c8}, ! Handle
  Component Data 1,                       ! Name
  {ce6f04fd-6d1e-42fa-869d-8d7d223d637f}, ! UUID
  {816ca54f-36ff-4759-9b40-0e0c2a8a4d4d}, ! Version UUID
  1366306982,                             ! Creation Timestamp
  1366306982,                             ! Version Timestamp
  {8e4366f7-610c-41ba-86b5-a5173ed37eb5}; ! Name of Object 1

