
OS:Version,
  {5a9e1642-93c9-457b-b2c3-65735211a9a0}, ! Handle
  0.9.3;                                  ! Version Identifier

OS:SizingPeriod:DesignDay,
  {2059ad91-80f7-4e34-9445-9ca1887edcdc}, ! Handle
  Louisville Bowman Field Ann Clg 2% Condns DB=>MWB, ! Name
  31.6,                                   ! Maximum Dry-Bulb Temperature {C}
  10.1,                                   ! Daily Dry-Bulb Temperature Range {deltaC}
  23.4,                                   ! Humidity Indicating Conditions at Maximum Dry-Bulb {BasedOnField A3}
  99358,                                  ! Barometric Pressure {Pa}
  3.2,                                    ! Wind Speed {m/s}
  240,                                    ! Wind Direction {deg}
  0,                                      ! Sky Clearness
  0,                                      ! Rain Indicator
  0,                                      ! Snow Indicator
  21,                                     ! Day of Month
  7,                                      ! Month
  SummerDesignDay,                        ! Day Type
  0,                                      ! Daylight Saving Time Indicator
  Wetbulb,                                ! Humidity Indicating Type
  ,                                       ! Humidity Indicating Day Schedule Name
  DefaultMultipliers,                     ! Dry-Bulb Temperature Range Modifier Type
  ,                                       ! Dry-Bulb Temperature Range Modifier Schedule Name
  ASHRAETau,                              ! Solar Model Indicator
  ,                                       ! Beam Solar Day Schedule Name
  ,                                       ! Diffuse Solar Day Schedule Name
  0.508,                                  ! ASHRAE Taub {dimensionless}
  1.877;                                  ! ASHRAE Taud {dimensionless}

OS:ComponentData,
  {c5172820-4926-4793-968a-7b1cec06b231}, ! Handle
  Component Data 1,                       ! Name
  {f7a99a3e-3926-496b-ae12-bf57dbd33a5e}, ! UUID
  {eb497ebf-58dc-4031-a841-8d377a090891}, ! Version UUID
  1366307663,                             ! Creation Timestamp
  1366307663,                             ! Version Timestamp
  {2059ad91-80f7-4e34-9445-9ca1887edcdc}; ! Name of Object 1

