
OS:Version,
  {1d6a0ec3-2d80-4868-ab4b-1d569f21018a}, ! Handle
  0.9.3;                                  ! Version Identifier

OS:SizingPeriod:DesignDay,
  {4c46ba88-be23-4f60-a9ae-e30e00d7786a}, ! Handle
  Lexington Ann Htg Wind 99.6% Condns WS=>MCDB, ! Name
  6.9,                                    ! Maximum Dry-Bulb Temperature {C}
  0,                                      ! Daily Dry-Bulb Temperature Range {deltaC}
  6.9,                                    ! Humidity Indicating Conditions at Maximum Dry-Bulb {BasedOnField A3}
  97761,                                  ! Barometric Pressure {Pa}
  11.1,                                   ! Wind Speed {m/s}
  290,                                    ! Wind Direction {deg}
  0,                                      ! Sky Clearness
  0,                                      ! Rain Indicator
  0,                                      ! Snow Indicator
  21,                                     ! Day of Month
  1,                                      ! Month
  WinterDesignDay,                        ! Day Type
  0,                                      ! Daylight Saving Time Indicator
  Wetbulb,                                ! Humidity Indicating Type
  ,                                       ! Humidity Indicating Day Schedule Name
  DefaultMultipliers,                     ! Dry-Bulb Temperature Range Modifier Type
  ,                                       ! Dry-Bulb Temperature Range Modifier Schedule Name
  ASHRAEClearSky;                         ! Solar Model Indicator

OS:ComponentData,
  {207880f4-2f9b-4eba-9b58-31563009ddd2}, ! Handle
  Component Data 1,                       ! Name
  {6b0d429a-9cd0-41bb-864c-1e7bb10a0953}, ! UUID
  {9db14813-ae9a-48c6-9f3a-f21fd3c32180}, ! Version UUID
  1366307647,                             ! Creation Timestamp
  1366307647,                             ! Version Timestamp
  {4c46ba88-be23-4f60-a9ae-e30e00d7786a}; ! Name of Object 1

