
OS:Version,
  {99d73220-c2bd-4f50-a663-8606df98e677}, ! Handle
  0.9.3;                                  ! Version Identifier

OS:SizingPeriod:DesignDay,
  {15144e1d-e338-4de5-bc9f-dce238975816}, ! Handle
  Augusta Airport Ann Clg .4% Condns DP=>MDB, ! Name
  25.4,                                   ! Maximum Dry-Bulb Temperature {C}
  10.1,                                   ! Daily Dry-Bulb Temperature Range {deltaC}
  21.6,                                   ! Humidity Indicating Conditions at Maximum Dry-Bulb {BasedOnField A3}
  100046,                                 ! Barometric Pressure {Pa}
  4.6,                                    ! Wind Speed {m/s}
  240,                                    ! Wind Direction {deg}
  0,                                      ! Sky Clearness
  0,                                      ! Rain Indicator
  0,                                      ! Snow Indicator
  21,                                     ! Day of Month
  7,                                      ! Month
  SummerDesignDay,                        ! Day Type
  0,                                      ! Daylight Saving Time Indicator
  Dewpoint,                               ! Humidity Indicating Type
  ,                                       ! Humidity Indicating Day Schedule Name
  DefaultMultipliers,                     ! Dry-Bulb Temperature Range Modifier Type
  ,                                       ! Dry-Bulb Temperature Range Modifier Schedule Name
  ASHRAETau,                              ! Solar Model Indicator
  ,                                       ! Beam Solar Day Schedule Name
  ,                                       ! Diffuse Solar Day Schedule Name
  0.458,                                  ! ASHRAE Taub {dimensionless}
  2.009;                                  ! ASHRAE Taud {dimensionless}

OS:ComponentData,
  {efc8a11a-3bb5-4b93-96a9-e804125eabe4}, ! Handle
  Component Data 1,                       ! Name
  {2ff2076c-a2ba-42de-93c0-7cd6b2fe0d79}, ! UUID
  {255f3f2f-f625-4fc2-bbaa-62fc2cb9b837}, ! Version UUID
  1366307869,                             ! Creation Timestamp
  1366307869,                             ! Version Timestamp
  {15144e1d-e338-4de5-bc9f-dce238975816}; ! Name of Object 1

