
OS:Version,
  {4b66bb01-6afb-4c87-96e3-16507558ba17}, ! Handle
  0.9.3;                                  ! Version Identifier

OS:SizingPeriod:DesignDay,
  {3562d0c8-4daa-47c6-b559-6092b44fa6e4}, ! Handle
  Charlotte Ann Htg Wind 99.6% Condns WS=>MCDB, ! Name
  7.3,                                    ! Maximum Dry-Bulb Temperature {C}
  0,                                      ! Daily Dry-Bulb Temperature Range {deltaC}
  7.3,                                    ! Humidity Indicating Conditions at Maximum Dry-Bulb {BasedOnField A3}
  98545,                                  ! Barometric Pressure {Pa}
  9.7,                                    ! Wind Speed {m/s}
  20,                                     ! Wind Direction {deg}
  0,                                      ! Sky Clearness
  0,                                      ! Rain Indicator
  0,                                      ! Snow Indicator
  21,                                     ! Day of Month
  1,                                      ! Month
  WinterDesignDay,                        ! Day Type
  0,                                      ! Daylight Saving Time Indicator
  Wetbulb,                                ! Humidity Indicating Type
  ,                                       ! Humidity Indicating Day Schedule Name
  DefaultMultipliers,                     ! Dry-Bulb Temperature Range Modifier Type
  ,                                       ! Dry-Bulb Temperature Range Modifier Schedule Name
  ASHRAEClearSky;                         ! Solar Model Indicator

OS:ComponentData,
  {7af3f0a9-e8f6-45f5-9b2c-885448dd289e}, ! Handle
  Component Data 1,                       ! Name
  {78be33f8-9230-450b-9b05-4e662e36bf8d}, ! UUID
  {df62094d-52d1-4e61-bcef-bb5915bc5a8a}, ! Version UUID
  1366308883,                             ! Creation Timestamp
  1366308883,                             ! Version Timestamp
  {3562d0c8-4daa-47c6-b559-6092b44fa6e4}; ! Name of Object 1

