
OS:Version,
  {e186adac-840f-4089-a7c6-94e84353e92f}, ! Handle
  0.9.3;                                  ! Version Identifier

OS:SizingPeriod:DesignDay,
  {e83e877a-228e-4abb-a178-9d3c61559c03}, ! Handle
  Greensboro Ann Clg .4% Condns DP=>MDB,  ! Name
  27.3,                                   ! Maximum Dry-Bulb Temperature {C}
  9.9,                                    ! Daily Dry-Bulb Temperature Range {deltaC}
  23.2,                                   ! Humidity Indicating Conditions at Maximum Dry-Bulb {BasedOnField A3}
  98123,                                  ! Barometric Pressure {Pa}
  3.4,                                    ! Wind Speed {m/s}
  230,                                    ! Wind Direction {deg}
  0,                                      ! Sky Clearness
  0,                                      ! Rain Indicator
  0,                                      ! Snow Indicator
  21,                                     ! Day of Month
  7,                                      ! Month
  SummerDesignDay,                        ! Day Type
  0,                                      ! Daylight Saving Time Indicator
  Dewpoint,                               ! Humidity Indicating Type
  ,                                       ! Humidity Indicating Day Schedule Name
  DefaultMultipliers,                     ! Dry-Bulb Temperature Range Modifier Type
  ,                                       ! Dry-Bulb Temperature Range Modifier Schedule Name
  ASHRAETau,                              ! Solar Model Indicator
  ,                                       ! Beam Solar Day Schedule Name
  ,                                       ! Diffuse Solar Day Schedule Name
  0.557,                                  ! ASHRAE Taub {dimensionless}
  1.757;                                  ! ASHRAE Taud {dimensionless}

OS:ComponentData,
  {be7fec09-b51e-4772-b080-cb1edf3806a2}, ! Handle
  Component Data 1,                       ! Name
  {9560217f-04fb-4298-92c9-902a991e9f0e}, ! UUID
  {6aebaf1a-209e-416a-8f1a-745bf6444a4b}, ! Version UUID
  1366308929,                             ! Creation Timestamp
  1366308929,                             ! Version Timestamp
  {e83e877a-228e-4abb-a178-9d3c61559c03}; ! Name of Object 1

