
OS:Version,
  {6944d663-69ea-43e4-8cef-923202efe209}, ! Handle
  0.9.3;                                  ! Version Identifier

OS:SizingPeriod:DesignDay,
  {67cb0b6f-b883-4a30-94d2-7f9ee65a890b}, ! Handle
  Jackson Julian Carroll Ap Ann Hum_n 99% Condns DP=>MCDB, ! Name
  -7.4,                                   ! Maximum Dry-Bulb Temperature {C}
  0,                                      ! Daily Dry-Bulb Temperature Range {deltaC}
  -15.9,                                  ! Humidity Indicating Conditions at Maximum Dry-Bulb {BasedOnField A3}
  96426,                                  ! Barometric Pressure {Pa}
  2.8,                                    ! Wind Speed {m/s}
  250,                                    ! Wind Direction {deg}
  0,                                      ! Sky Clearness
  0,                                      ! Rain Indicator
  0,                                      ! Snow Indicator
  21,                                     ! Day of Month
  1,                                      ! Month
  WinterDesignDay,                        ! Day Type
  0,                                      ! Daylight Saving Time Indicator
  Dewpoint,                               ! Humidity Indicating Type
  ,                                       ! Humidity Indicating Day Schedule Name
  DefaultMultipliers,                     ! Dry-Bulb Temperature Range Modifier Type
  ,                                       ! Dry-Bulb Temperature Range Modifier Schedule Name
  ASHRAEClearSky;                         ! Solar Model Indicator

OS:ComponentData,
  {1b27864c-7023-4566-8233-60896552f2de}, ! Handle
  Component Data 1,                       ! Name
  {038a7655-7f55-496c-9702-c146522148d3}, ! UUID
  {a7e79e80-f757-4653-9bdc-f8b693dff0a0}, ! Version UUID
  1366307643,                             ! Creation Timestamp
  1366307643,                             ! Version Timestamp
  {67cb0b6f-b883-4a30-94d2-7f9ee65a890b}; ! Name of Object 1

