
OS:Version,
  {7b813891-4e37-40fa-b280-e4320197374e}, ! Handle
  0.9.3;                                  ! Version Identifier

OS:SizingPeriod:DesignDay,
  {0ae8a2e2-4524-4c64-b008-39e5f6c5acd8}, ! Handle
  Decatur Ann Clg 2% Condns Enth=>MDB,    ! Name
  29.3,                                   ! Maximum Dry-Bulb Temperature {C}
  11.2,                                   ! Daily Dry-Bulb Temperature Range {deltaC}
  75400,                                  ! Humidity Indicating Conditions at Maximum Dry-Bulb {BasedOnField A3}
  98792,                                  ! Barometric Pressure {Pa}
  4.9,                                    ! Wind Speed {m/s}
  240,                                    ! Wind Direction {deg}
  0,                                      ! Sky Clearness
  0,                                      ! Rain Indicator
  0,                                      ! Snow Indicator
  21,                                     ! Day of Month
  7,                                      ! Month
  SummerDesignDay,                        ! Day Type
  0,                                      ! Daylight Saving Time Indicator
  Enthalpy,                               ! Humidity Indicating Type
  ,                                       ! Humidity Indicating Day Schedule Name
  DefaultMultipliers,                     ! Dry-Bulb Temperature Range Modifier Type
  ,                                       ! Dry-Bulb Temperature Range Modifier Schedule Name
  ASHRAETau,                              ! Solar Model Indicator
  ,                                       ! Beam Solar Day Schedule Name
  ,                                       ! Diffuse Solar Day Schedule Name
  0.462,                                  ! ASHRAE Taub {dimensionless}
  2.022;                                  ! ASHRAE Taud {dimensionless}

OS:ComponentData,
  {01ef4ce9-9f6e-4b0d-9840-310183b1c6cd}, ! Handle
  Component Data 1,                       ! Name
  {bdf729d8-798b-4949-a8b4-e52d3e7edd99}, ! UUID
  {f59757fe-71c0-40cc-b457-ee8f52a50352}, ! Version UUID
  1366307356,                             ! Creation Timestamp
  1366307356,                             ! Version Timestamp
  {0ae8a2e2-4524-4c64-b008-39e5f6c5acd8}; ! Name of Object 1

