
OS:Version,
  {79f28433-3760-4a21-8638-a94e2054ebf4}, ! Handle
  0.9.3;                                  ! Version Identifier

OS:SizingPeriod:DesignDay,
  {d15ceffc-269c-475b-95ed-857ace4a6362}, ! Handle
  Lebanon Municipal Ann Htg Wind 99.6% Condns WS=>MCDB, ! Name
  -5.7,                                   ! Maximum Dry-Bulb Temperature {C}
  0,                                      ! Daily Dry-Bulb Temperature Range {deltaC}
  -5.7,                                   ! Humidity Indicating Conditions at Maximum Dry-Bulb {BasedOnField A3}
  99158,                                  ! Barometric Pressure {Pa}
  8.4,                                    ! Wind Speed {m/s}
  170,                                    ! Wind Direction {deg}
  0,                                      ! Sky Clearness
  0,                                      ! Rain Indicator
  0,                                      ! Snow Indicator
  21,                                     ! Day of Month
  1,                                      ! Month
  WinterDesignDay,                        ! Day Type
  0,                                      ! Daylight Saving Time Indicator
  Wetbulb,                                ! Humidity Indicating Type
  ,                                       ! Humidity Indicating Day Schedule Name
  DefaultMultipliers,                     ! Dry-Bulb Temperature Range Modifier Type
  ,                                       ! Dry-Bulb Temperature Range Modifier Schedule Name
  ASHRAEClearSky;                         ! Solar Model Indicator

OS:ComponentData,
  {e3dc6b0f-aca2-4685-a5a3-f0df527951e1}, ! Handle
  Component Data 1,                       ! Name
  {9f14a1ac-051b-4223-a52a-e72f5e4988a6}, ! UUID
  {00437fe4-b6c6-4155-bc4f-2f4babe5a641}, ! Version UUID
  1366309256,                             ! Creation Timestamp
  1366309256,                             ! Version Timestamp
  {d15ceffc-269c-475b-95ed-857ace4a6362}; ! Name of Object 1

