
OS:Version,
  {a7510d4a-1e64-4a82-bbad-86118061531e}, ! Handle
  0.9.3;                                  ! Version Identifier

OS:SizingPeriod:DesignDay,
  {ee7e8eba-d076-46e3-9ebc-50fc67c5aa33}, ! Handle
  Buffalo Niagara Intl Ap Ann Htg 99.6% Condns DB, ! Name
  -16.3,                                  ! Maximum Dry-Bulb Temperature {C}
  0,                                      ! Daily Dry-Bulb Temperature Range {deltaC}
  -16.3,                                  ! Humidity Indicating Conditions at Maximum Dry-Bulb {BasedOnField A3}
  98769,                                  ! Barometric Pressure {Pa}
  5.1,                                    ! Wind Speed {m/s}
  270,                                    ! Wind Direction {deg}
  0,                                      ! Sky Clearness
  0,                                      ! Rain Indicator
  0,                                      ! Snow Indicator
  21,                                     ! Day of Month
  1,                                      ! Month
  WinterDesignDay,                        ! Day Type
  0,                                      ! Daylight Saving Time Indicator
  Wetbulb,                                ! Humidity Indicating Type
  ,                                       ! Humidity Indicating Day Schedule Name
  DefaultMultipliers,                     ! Dry-Bulb Temperature Range Modifier Type
  ,                                       ! Dry-Bulb Temperature Range Modifier Schedule Name
  ASHRAEClearSky;                         ! Solar Model Indicator

OS:ComponentData,
  {3877394c-6067-4d7b-9522-37958651f9d3}, ! Handle
  Component Data 1,                       ! Name
  {8f5133da-2f69-475a-8b6d-e8f2b5c3d7a8}, ! UUID
  {dfc763f9-8103-4b6c-82c4-83a1745609cf}, ! Version UUID
  1366309606,                             ! Creation Timestamp
  1366309606,                             ! Version Timestamp
  {ee7e8eba-d076-46e3-9ebc-50fc67c5aa33}; ! Name of Object 1

