
OS:Version,
  {0396b2f6-7ec1-4c7d-bc45-838e72f3c5be}, ! Handle
  0.9.3;                                  ! Version Identifier

OS:SizingPeriod:DesignDay,
  {f9ec60f8-0eec-4b8d-8591-0580514d1189}, ! Handle
  Greenwood Leflore Arpt Ann Hum_n 99.6% Condns DP=>MCDB, ! Name
  -3.2,                                   ! Maximum Dry-Bulb Temperature {C}
  0,                                      ! Daily Dry-Bulb Temperature Range {deltaC}
  -13.1,                                  ! Humidity Indicating Conditions at Maximum Dry-Bulb {BasedOnField A3}
  100762,                                 ! Barometric Pressure {Pa}
  2.7,                                    ! Wind Speed {m/s}
  0,                                      ! Wind Direction {deg}
  0,                                      ! Sky Clearness
  0,                                      ! Rain Indicator
  0,                                      ! Snow Indicator
  21,                                     ! Day of Month
  1,                                      ! Month
  WinterDesignDay,                        ! Day Type
  0,                                      ! Daylight Saving Time Indicator
  Dewpoint,                               ! Humidity Indicating Type
  ,                                       ! Humidity Indicating Day Schedule Name
  DefaultMultipliers,                     ! Dry-Bulb Temperature Range Modifier Type
  ,                                       ! Dry-Bulb Temperature Range Modifier Schedule Name
  ASHRAEClearSky;                         ! Solar Model Indicator

OS:ComponentData,
  {2e2fda4b-c0f8-46b5-b4c2-40ce9e784e8b}, ! Handle
  Component Data 1,                       ! Name
  {b8137ad6-e27c-4767-956c-6142575b7262}, ! UUID
  {58121c44-3f6c-44f7-999c-3dd25cc2ebe3}, ! Version UUID
  1366308625,                             ! Creation Timestamp
  1366308625,                             ! Version Timestamp
  {f9ec60f8-0eec-4b8d-8591-0580514d1189}; ! Name of Object 1

