
OS:Version,
  {6bc4e8b7-61df-4442-8ac1-cb7314c98df2}, ! Handle
  0.9.3;                                  ! Version Identifier

OS:SizingPeriod:DesignDay,
  {456c0632-ec5e-4eb8-88dd-b515de84ea68}, ! Handle
  KAHULUI Ann Clg .4% Condns WB=>MDB,     ! Name
  29.8,                                   ! Maximum Dry-Bulb Temperature {C}
  8.3,                                    ! Daily Dry-Bulb Temperature Range {deltaC}
  25,                                     ! Humidity Indicating Conditions at Maximum Dry-Bulb {BasedOnField A3}
  101145,                                 ! Barometric Pressure {Pa}
  7.9,                                    ! Wind Speed {m/s}
  60,                                     ! Wind Direction {deg}
  0,                                      ! Sky Clearness
  0,                                      ! Rain Indicator
  0,                                      ! Snow Indicator
  21,                                     ! Day of Month
  8,                                      ! Month
  SummerDesignDay,                        ! Day Type
  0,                                      ! Daylight Saving Time Indicator
  Wetbulb,                                ! Humidity Indicating Type
  ,                                       ! Humidity Indicating Day Schedule Name
  DefaultMultipliers,                     ! Dry-Bulb Temperature Range Modifier Type
  ,                                       ! Dry-Bulb Temperature Range Modifier Schedule Name
  ASHRAETau,                              ! Solar Model Indicator
  ,                                       ! Beam Solar Day Schedule Name
  ,                                       ! Diffuse Solar Day Schedule Name
  0.383,                                  ! ASHRAE Taub {dimensionless}
  2.519;                                  ! ASHRAE Taud {dimensionless}

OS:ComponentData,
  {1c39acd3-4c4a-491f-8820-e8fa3ff7355c}, ! Handle
  Component Data 1,                       ! Name
  {977e77f0-b045-4f24-88e9-87d13b29fdce}, ! UUID
  {71825a1b-d004-4a09-8d67-c8ae039bbc90}, ! Version UUID
  1366307097,                             ! Creation Timestamp
  1366307097,                             ! Version Timestamp
  {456c0632-ec5e-4eb8-88dd-b515de84ea68}; ! Name of Object 1

