
OS:Version,
  {6c7cd198-f444-4377-b631-629b456fd68e}, ! Handle
  0.9.3;                                  ! Version Identifier

OS:SizingPeriod:DesignDay,
  {a5002aa3-b5ff-4b86-979c-7ed6225c80ca}, ! Handle
  Faribault Muni Awos Ann Clg .4% Condns Enth=>MDB, ! Name
  30,                                     ! Maximum Dry-Bulb Temperature {C}
  10.9,                                   ! Daily Dry-Bulb Temperature Range {deltaC}
  81000,                                  ! Humidity Indicating Conditions at Maximum Dry-Bulb {BasedOnField A3}
  97516,                                  ! Barometric Pressure {Pa}
  4.9,                                    ! Wind Speed {m/s}
  200,                                    ! Wind Direction {deg}
  0,                                      ! Sky Clearness
  0,                                      ! Rain Indicator
  0,                                      ! Snow Indicator
  21,                                     ! Day of Month
  7,                                      ! Month
  SummerDesignDay,                        ! Day Type
  0,                                      ! Daylight Saving Time Indicator
  Enthalpy,                               ! Humidity Indicating Type
  ,                                       ! Humidity Indicating Day Schedule Name
  DefaultMultipliers,                     ! Dry-Bulb Temperature Range Modifier Type
  ,                                       ! Dry-Bulb Temperature Range Modifier Schedule Name
  ASHRAETau,                              ! Solar Model Indicator
  ,                                       ! Beam Solar Day Schedule Name
  ,                                       ! Diffuse Solar Day Schedule Name
  0.414,                                  ! ASHRAE Taub {dimensionless}
  2.19;                                   ! ASHRAE Taud {dimensionless}

OS:ComponentData,
  {12c0dc17-666d-4b1e-bd21-7d929926cbe3}, ! Handle
  Component Data 1,                       ! Name
  {0b10feca-a4d5-47a3-873d-e5b4cb1ff9a2}, ! UUID
  {9b089a59-c1c5-4b8c-a4d2-607b8ba5a2db}, ! Version UUID
  1366308230,                             ! Creation Timestamp
  1366308230,                             ! Version Timestamp
  {a5002aa3-b5ff-4b86-979c-7ed6225c80ca}; ! Name of Object 1

