
OS:Version,
  {89f42831-f815-4ace-9c60-5330bf572b39}, ! Handle
  0.9.3;                                  ! Version Identifier

OS:SizingPeriod:DesignDay,
  {b0791274-e8d0-44d7-8199-07df2f6162d0}, ! Handle
  EVANSVILLE Ann Clg 1% Condns DP=>MDB,   ! Name
  28.7,                                   ! Maximum Dry-Bulb Temperature {C}
  10.6,                                   ! Daily Dry-Bulb Temperature Range {deltaC}
  24,                                     ! Humidity Indicating Conditions at Maximum Dry-Bulb {BasedOnField A3}
  99915,                                  ! Barometric Pressure {Pa}
  3.7,                                    ! Wind Speed {m/s}
  240,                                    ! Wind Direction {deg}
  0,                                      ! Sky Clearness
  0,                                      ! Rain Indicator
  0,                                      ! Snow Indicator
  21,                                     ! Day of Month
  7,                                      ! Month
  SummerDesignDay,                        ! Day Type
  0,                                      ! Daylight Saving Time Indicator
  Dewpoint,                               ! Humidity Indicating Type
  ,                                       ! Humidity Indicating Day Schedule Name
  DefaultMultipliers,                     ! Dry-Bulb Temperature Range Modifier Type
  ,                                       ! Dry-Bulb Temperature Range Modifier Schedule Name
  ASHRAETau,                              ! Solar Model Indicator
  ,                                       ! Beam Solar Day Schedule Name
  ,                                       ! Diffuse Solar Day Schedule Name
  0.508,                                  ! ASHRAE Taub {dimensionless}
  1.881;                                  ! ASHRAE Taud {dimensionless}

OS:ComponentData,
  {b252c360-8bec-423c-8b25-f88967cd72b8}, ! Handle
  Component Data 1,                       ! Name
  {6473548a-e132-4d4d-843b-684abe17b9e2}, ! UUID
  {605766a6-1504-4535-8b81-c4b735ac4d13}, ! Version UUID
  1366307424,                             ! Creation Timestamp
  1366307424,                             ! Version Timestamp
  {b0791274-e8d0-44d7-8199-07df2f6162d0}; ! Name of Object 1

