
OS:Version,
  {263107dd-3802-4067-b7d8-ccb97bc4b4e3}, ! Handle
  0.9.3;                                  ! Version Identifier

OS:SizingPeriod:DesignDay,
  {44b251a1-c7dd-4198-918f-ab1d623cccb2}, ! Handle
  Lihue Airport Ann Htg Wind 99% Condns WS=>MCDB, ! Name
  22.1,                                   ! Maximum Dry-Bulb Temperature {C}
  0,                                      ! Daily Dry-Bulb Temperature Range {deltaC}
  22.1,                                   ! Humidity Indicating Conditions at Maximum Dry-Bulb {BasedOnField A3}
  100953,                                 ! Barometric Pressure {Pa}
  11.8,                                   ! Wind Speed {m/s}
  280,                                    ! Wind Direction {deg}
  0,                                      ! Sky Clearness
  0,                                      ! Rain Indicator
  0,                                      ! Snow Indicator
  21,                                     ! Day of Month
  2,                                      ! Month
  WinterDesignDay,                        ! Day Type
  0,                                      ! Daylight Saving Time Indicator
  Wetbulb,                                ! Humidity Indicating Type
  ,                                       ! Humidity Indicating Day Schedule Name
  DefaultMultipliers,                     ! Dry-Bulb Temperature Range Modifier Type
  ,                                       ! Dry-Bulb Temperature Range Modifier Schedule Name
  ASHRAEClearSky;                         ! Solar Model Indicator

OS:ComponentData,
  {dc756562-fedd-4bd3-9eb7-3065d91e08d1}, ! Handle
  Component Data 1,                       ! Name
  {960115e3-95da-48d2-b58e-d17132c8a6bf}, ! UUID
  {0e62dc66-74d1-4137-bbbe-ffdec2813b5a}, ! Version UUID
  1366307120,                             ! Creation Timestamp
  1366307120,                             ! Version Timestamp
  {44b251a1-c7dd-4198-918f-ab1d623cccb2}; ! Name of Object 1

