
OS:Version,
  {33123319-5f78-4405-b980-f1dc40a81c63}, ! Handle
  0.9.3;                                  ! Version Identifier

OS:SizingPeriod:DesignDay,
  {8ef64e23-189e-49aa-8b32-32c3d26299c0}, ! Handle
  Hattiesburg Laurel Ann Htg Wind 99% Condns WS=>MCDB, ! Name
  12.1,                                   ! Maximum Dry-Bulb Temperature {C}
  0,                                      ! Daily Dry-Bulb Temperature Range {deltaC}
  12.1,                                   ! Humidity Indicating Conditions at Maximum Dry-Bulb {BasedOnField A3}
  100213,                                 ! Barometric Pressure {Pa}
  7.3,                                    ! Wind Speed {m/s}
  350,                                    ! Wind Direction {deg}
  0,                                      ! Sky Clearness
  0,                                      ! Rain Indicator
  0,                                      ! Snow Indicator
  21,                                     ! Day of Month
  1,                                      ! Month
  WinterDesignDay,                        ! Day Type
  0,                                      ! Daylight Saving Time Indicator
  Wetbulb,                                ! Humidity Indicating Type
  ,                                       ! Humidity Indicating Day Schedule Name
  DefaultMultipliers,                     ! Dry-Bulb Temperature Range Modifier Type
  ,                                       ! Dry-Bulb Temperature Range Modifier Schedule Name
  ASHRAEClearSky;                         ! Solar Model Indicator

OS:ComponentData,
  {91df305a-3b5d-45ce-a2dd-e02397669687}, ! Handle
  Component Data 1,                       ! Name
  {ea6aefac-7b31-4eb1-bfa8-6cbf8d630c0b}, ! UUID
  {ece95ab5-adc9-48c3-9e53-ee8a6ea55762}, ! Version UUID
  1366308633,                             ! Creation Timestamp
  1366308633,                             ! Version Timestamp
  {8ef64e23-189e-49aa-8b32-32c3d26299c0}; ! Name of Object 1

