
OS:Version,
  {339fc1ac-f14c-4dc3-a20d-6d4bb1ff5293}, ! Handle
  0.9.3;                                  ! Version Identifier

OS:SizingPeriod:DesignDay,
  {5a3176ae-71e8-41bc-8d5f-c2cf65cb5c22}, ! Handle
  Keesler Afb Ann Htg 99% Condns DB,      ! Name
  1.6,                                    ! Maximum Dry-Bulb Temperature {C}
  0,                                      ! Daily Dry-Bulb Temperature Range {deltaC}
  1.6,                                    ! Humidity Indicating Conditions at Maximum Dry-Bulb {BasedOnField A3}
  101229,                                 ! Barometric Pressure {Pa}
  3.7,                                    ! Wind Speed {m/s}
  0,                                      ! Wind Direction {deg}
  0,                                      ! Sky Clearness
  0,                                      ! Rain Indicator
  0,                                      ! Snow Indicator
  21,                                     ! Day of Month
  1,                                      ! Month
  WinterDesignDay,                        ! Day Type
  0,                                      ! Daylight Saving Time Indicator
  Wetbulb,                                ! Humidity Indicating Type
  ,                                       ! Humidity Indicating Day Schedule Name
  DefaultMultipliers,                     ! Dry-Bulb Temperature Range Modifier Type
  ,                                       ! Dry-Bulb Temperature Range Modifier Schedule Name
  ASHRAEClearSky;                         ! Solar Model Indicator

OS:ComponentData,
  {1726b5d3-fc45-4624-a94a-475db2a6f68e}, ! Handle
  Component Data 1,                       ! Name
  {33c0dbd6-9dca-4533-98ec-119bccbd429f}, ! UUID
  {16a7ddd2-78a9-4af9-ab25-1d46d54ff80f}, ! Version UUID
  1366308606,                             ! Creation Timestamp
  1366308606,                             ! Version Timestamp
  {5a3176ae-71e8-41bc-8d5f-c2cf65cb5c22}; ! Name of Object 1

