
OS:Version,
  {98e75da3-4d4d-4d6d-b1e4-29010973a1ce}, ! Handle
  0.9.3;                                  ! Version Identifier

OS:SizingPeriod:DesignDay,
  {8e8fb760-d996-4ff9-9f98-42ef7fab6e51}, ! Handle
  Del Rio Laughlin Afb Ann Clg 2% Condns DP=>MDB, ! Name
  27.7,                                   ! Maximum Dry-Bulb Temperature {C}
  11.9,                                   ! Daily Dry-Bulb Temperature Range {deltaC}
  22.6,                                   ! Humidity Indicating Conditions at Maximum Dry-Bulb {BasedOnField A3}
  97458,                                  ! Barometric Pressure {Pa}
  5.1,                                    ! Wind Speed {m/s}
  130,                                    ! Wind Direction {deg}
  0,                                      ! Sky Clearness
  0,                                      ! Rain Indicator
  0,                                      ! Snow Indicator
  21,                                     ! Day of Month
  7,                                      ! Month
  SummerDesignDay,                        ! Day Type
  0,                                      ! Daylight Saving Time Indicator
  Dewpoint,                               ! Humidity Indicating Type
  ,                                       ! Humidity Indicating Day Schedule Name
  DefaultMultipliers,                     ! Dry-Bulb Temperature Range Modifier Type
  ,                                       ! Dry-Bulb Temperature Range Modifier Schedule Name
  ASHRAETau,                              ! Solar Model Indicator
  ,                                       ! Beam Solar Day Schedule Name
  ,                                       ! Diffuse Solar Day Schedule Name
  0.473,                                  ! ASHRAE Taub {dimensionless}
  2.019;                                  ! ASHRAE Taud {dimensionless}

OS:ComponentData,
  {1609822a-9bc5-4c4e-aa05-e0c8c192b826}, ! Handle
  Component Data 1,                       ! Name
  {cf8358f0-85e7-4e9c-8b3f-ba8979e65735}, ! UUID
  {c6eb6f07-b13e-425c-9231-038bc8baa8d8}, ! Version UUID
  1366310669,                             ! Creation Timestamp
  1366310669,                             ! Version Timestamp
  {8e8fb760-d996-4ff9-9f98-42ef7fab6e51}; ! Name of Object 1

