
OS:Version,
  {78872317-6323-4db2-82c5-e5247cca9860}, ! Handle
  0.9.3;                                  ! Version Identifier

OS:SizingPeriod:DesignDay,
  {97f5a973-a77a-4689-a075-2012397add68}, ! Handle
  Columbus/Int'l Airport Ann Clg .4% Condns Enth=>MDB, ! Name
  30.6,                                   ! Maximum Dry-Bulb Temperature {C}
  10.5,                                   ! Daily Dry-Bulb Temperature Range {deltaC}
  76300,                                  ! Humidity Indicating Conditions at Maximum Dry-Bulb {BasedOnField A3}
  98369,                                  ! Barometric Pressure {Pa}
  4.3,                                    ! Wind Speed {m/s}
  240,                                    ! Wind Direction {deg}
  0,                                      ! Sky Clearness
  0,                                      ! Rain Indicator
  0,                                      ! Snow Indicator
  21,                                     ! Day of Month
  7,                                      ! Month
  SummerDesignDay,                        ! Day Type
  0,                                      ! Daylight Saving Time Indicator
  Enthalpy,                               ! Humidity Indicating Type
  ,                                       ! Humidity Indicating Day Schedule Name
  DefaultMultipliers,                     ! Dry-Bulb Temperature Range Modifier Type
  ,                                       ! Dry-Bulb Temperature Range Modifier Schedule Name
  ASHRAETau,                              ! Solar Model Indicator
  ,                                       ! Beam Solar Day Schedule Name
  ,                                       ! Diffuse Solar Day Schedule Name
  0.484,                                  ! ASHRAE Taub {dimensionless}
  1.943;                                  ! ASHRAE Taud {dimensionless}

OS:ComponentData,
  {ad55c3e2-4762-4828-838b-745b18006818}, ! Handle
  Component Data 1,                       ! Name
  {ea2a1618-69a7-4b40-9993-afb22f9bd80d}, ! UUID
  {428ffade-53b9-490d-b90c-026b1dc40ccb}, ! Version UUID
  1366309791,                             ! Creation Timestamp
  1366309791,                             ! Version Timestamp
  {97f5a973-a77a-4689-a075-2012397add68}; ! Name of Object 1

