
OS:Version,
  {8df4d8b1-6cf6-473e-b8ff-6c08cce15db3}, ! Handle
  0.9.3;                                  ! Version Identifier

OS:SizingPeriod:DesignDay,
  {5a3336c5-3b28-4dce-94df-5bb74452c0cc}, ! Handle
  Long Beach Ann Clg 1% Condns WB=>MDB,   ! Name
  27.5,                                   ! Maximum Dry-Bulb Temperature {C}
  9.5,                                    ! Daily Dry-Bulb Temperature Range {deltaC}
  21.7,                                   ! Humidity Indicating Conditions at Maximum Dry-Bulb {BasedOnField A3}
  101181,                                 ! Barometric Pressure {Pa}
  4.1,                                    ! Wind Speed {m/s}
  280,                                    ! Wind Direction {deg}
  0,                                      ! Sky Clearness
  0,                                      ! Rain Indicator
  0,                                      ! Snow Indicator
  21,                                     ! Day of Month
  8,                                      ! Month
  SummerDesignDay,                        ! Day Type
  0,                                      ! Daylight Saving Time Indicator
  Wetbulb,                                ! Humidity Indicating Type
  ,                                       ! Humidity Indicating Day Schedule Name
  DefaultMultipliers,                     ! Dry-Bulb Temperature Range Modifier Type
  ,                                       ! Dry-Bulb Temperature Range Modifier Schedule Name
  ASHRAETau,                              ! Solar Model Indicator
  ,                                       ! Beam Solar Day Schedule Name
  ,                                       ! Diffuse Solar Day Schedule Name
  0.45,                                   ! ASHRAE Taub {dimensionless}
  2.074;                                  ! ASHRAE Taud {dimensionless}

OS:ComponentData,
  {9ec22ebb-94fe-4db3-af52-86510bf62231}, ! Handle
  Component Data 1,                       ! Name
  {5e503ae4-b405-469e-ae2e-ed8c8edf5e13}, ! UUID
  {8417593f-eacc-480c-ab0b-681b63c4335b}, ! Version UUID
  1366306470,                             ! Creation Timestamp
  1366306470,                             ! Version Timestamp
  {5a3336c5-3b28-4dce-94df-5bb74452c0cc}; ! Name of Object 1

