
OS:Version,
  {889fa563-8991-468d-917b-b1ab101ba77d}, ! Handle
  0.9.3;                                  ! Version Identifier

OS:SizingPeriod:DesignDay,
  {b93cdba9-8cca-4a88-9770-18e90130ad0f}, ! Handle
  Houlton Intl Arpt Ann Clg 1% Condns DP=>MDB, ! Name
  23.4,                                   ! Maximum Dry-Bulb Temperature {C}
  12.4,                                   ! Daily Dry-Bulb Temperature Range {deltaC}
  19.9,                                   ! Humidity Indicating Conditions at Maximum Dry-Bulb {BasedOnField A3}
  99536,                                  ! Barometric Pressure {Pa}
  4.7,                                    ! Wind Speed {m/s}
  230,                                    ! Wind Direction {deg}
  0,                                      ! Sky Clearness
  0,                                      ! Rain Indicator
  0,                                      ! Snow Indicator
  21,                                     ! Day of Month
  7,                                      ! Month
  SummerDesignDay,                        ! Day Type
  0,                                      ! Daylight Saving Time Indicator
  Dewpoint,                               ! Humidity Indicating Type
  ,                                       ! Humidity Indicating Day Schedule Name
  DefaultMultipliers,                     ! Dry-Bulb Temperature Range Modifier Type
  ,                                       ! Dry-Bulb Temperature Range Modifier Schedule Name
  ASHRAETau,                              ! Solar Model Indicator
  ,                                       ! Beam Solar Day Schedule Name
  ,                                       ! Diffuse Solar Day Schedule Name
  0.441,                                  ! ASHRAE Taub {dimensionless}
  2.068;                                  ! ASHRAE Taud {dimensionless}

OS:ComponentData,
  {ac0d6a70-a616-42d3-a957-f2b54e37fb25}, ! Handle
  Component Data 1,                       ! Name
  {767f1c21-7b6c-4ac0-a984-39053a0146c7}, ! UUID
  {92063569-2c94-4780-9b24-12cbba8ff293}, ! Version UUID
  1366307903,                             ! Creation Timestamp
  1366307903,                             ! Version Timestamp
  {b93cdba9-8cca-4a88-9770-18e90130ad0f}; ! Name of Object 1

