
OS:Version,
  {c5a9d54c-db75-4e19-9d1a-7ad83f601663}, ! Handle
  0.9.3;                                  ! Version Identifier

OS:SizingPeriod:DesignDay,
  {d4d88ae8-d509-4fc5-8ccc-7564e443e10b}, ! Handle
  Anchorage Intl Ap Ann Clg 1% Condns Enth=>MDB, ! Name
  19,                                     ! Maximum Dry-Bulb Temperature {C}
  6.6,                                    ! Daily Dry-Bulb Temperature Range {deltaC}
  41500,                                  ! Humidity Indicating Conditions at Maximum Dry-Bulb {BasedOnField A3}
  100905,                                 ! Barometric Pressure {Pa}
  3.6,                                    ! Wind Speed {m/s}
  300,                                    ! Wind Direction {deg}
  0,                                      ! Sky Clearness
  0,                                      ! Rain Indicator
  0,                                      ! Snow Indicator
  21,                                     ! Day of Month
  7,                                      ! Month
  SummerDesignDay,                        ! Day Type
  0,                                      ! Daylight Saving Time Indicator
  Enthalpy,                               ! Humidity Indicating Type
  ,                                       ! Humidity Indicating Day Schedule Name
  DefaultMultipliers,                     ! Dry-Bulb Temperature Range Modifier Type
  ,                                       ! Dry-Bulb Temperature Range Modifier Schedule Name
  ASHRAETau,                              ! Solar Model Indicator
  ,                                       ! Beam Solar Day Schedule Name
  ,                                       ! Diffuse Solar Day Schedule Name
  0.387,                                  ! ASHRAE Taub {dimensionless}
  2.172;                                  ! ASHRAE Taud {dimensionless}

OS:ComponentData,
  {c4ea500a-9be2-4e92-98c9-65052ce07005}, ! Handle
  Component Data 1,                       ! Name
  {f0447131-cfa0-4f3d-99e3-8ad85b1162c6}, ! UUID
  {3c2552ee-3ade-4f79-a86c-229bce335c9f}, ! Version UUID
  1366304710,                             ! Creation Timestamp
  1366304710,                             ! Version Timestamp
  {d4d88ae8-d509-4fc5-8ccc-7564e443e10b}; ! Name of Object 1

