
OS:Version,
  {22172fd7-c6c9-4d4d-ad46-5b0c4b7734ec}, ! Handle
  0.9.3;                                  ! Version Identifier

OS:SizingPeriod:DesignDay,
  {79ea2c65-1b9e-44e5-a3c3-f410a34d190e}, ! Handle
  Eau Claire Ann Clg .4% Condns WB=>MDB,  ! Name
  30.1,                                   ! Maximum Dry-Bulb Temperature {C}
  11.5,                                   ! Daily Dry-Bulb Temperature Range {deltaC}
  24.5,                                   ! Humidity Indicating Conditions at Maximum Dry-Bulb {BasedOnField A3}
  98053,                                  ! Barometric Pressure {Pa}
  5.2,                                    ! Wind Speed {m/s}
  190,                                    ! Wind Direction {deg}
  0,                                      ! Sky Clearness
  0,                                      ! Rain Indicator
  0,                                      ! Snow Indicator
  21,                                     ! Day of Month
  7,                                      ! Month
  SummerDesignDay,                        ! Day Type
  0,                                      ! Daylight Saving Time Indicator
  Wetbulb,                                ! Humidity Indicating Type
  ,                                       ! Humidity Indicating Day Schedule Name
  DefaultMultipliers,                     ! Dry-Bulb Temperature Range Modifier Type
  ,                                       ! Dry-Bulb Temperature Range Modifier Schedule Name
  ASHRAETau,                              ! Solar Model Indicator
  ,                                       ! Beam Solar Day Schedule Name
  ,                                       ! Diffuse Solar Day Schedule Name
  0.412,                                  ! ASHRAE Taub {dimensionless}
  2.189;                                  ! ASHRAE Taud {dimensionless}

OS:ComponentData,
  {e5ed8561-3325-4a34-924f-bd38e2d01482}, ! Handle
  Component Data 1,                       ! Name
  {a3991952-f3df-4ee8-8261-c37e2bed2901}, ! UUID
  {79ed6910-258e-4b17-b4d6-0d9fc2be1f7e}, ! Version UUID
  1366311469,                             ! Creation Timestamp
  1366311469,                             ! Version Timestamp
  {79ea2c65-1b9e-44e5-a3c3-f410a34d190e}; ! Name of Object 1

