
OS:Version,
  {b0f816d3-4805-4278-a17d-f126bb560edd}, ! Handle
  0.9.3;                                  ! Version Identifier

OS:SizingPeriod:DesignDay,
  {20a4d87d-62bf-4943-9fe7-90c5caa37c65}, ! Handle
  Fullerton Municipal Ann Htg Wind 99% Condns WS=>MCDB, ! Name
  19.6,                                   ! Maximum Dry-Bulb Temperature {C}
  0,                                      ! Daily Dry-Bulb Temperature Range {deltaC}
  19.6,                                   ! Humidity Indicating Conditions at Maximum Dry-Bulb {BasedOnField A3}
  100977,                                 ! Barometric Pressure {Pa}
  7.6,                                    ! Wind Speed {m/s}
  90,                                     ! Wind Direction {deg}
  0,                                      ! Sky Clearness
  0,                                      ! Rain Indicator
  0,                                      ! Snow Indicator
  21,                                     ! Day of Month
  12,                                     ! Month
  WinterDesignDay,                        ! Day Type
  0,                                      ! Daylight Saving Time Indicator
  Wetbulb,                                ! Humidity Indicating Type
  ,                                       ! Humidity Indicating Day Schedule Name
  DefaultMultipliers,                     ! Dry-Bulb Temperature Range Modifier Type
  ,                                       ! Dry-Bulb Temperature Range Modifier Schedule Name
  ASHRAEClearSky;                         ! Solar Model Indicator

OS:ComponentData,
  {1b9ce93c-bc3d-493b-a8aa-6321c47ec234}, ! Handle
  Component Data 1,                       ! Name
  {219bff49-049e-4be9-b83b-0d2c02530d36}, ! UUID
  {d1775150-5591-44a7-a14e-b36f571ed2a3}, ! Version UUID
  1366306441,                             ! Creation Timestamp
  1366306441,                             ! Version Timestamp
  {20a4d87d-62bf-4943-9fe7-90c5caa37c65}; ! Name of Object 1

