
OS:Version,
  {7a8dfbb4-ad86-48e0-96a5-cc77a1dfe385}, ! Handle
  0.9.3;                                  ! Version Identifier

OS:SizingPeriod:DesignDay,
  {c92895d9-5baf-4efd-bafa-13ab9aa4ec5b}, ! Handle
  LUFKIN Ann Clg .4% Condns WB=>MDB,      ! Name
  32.4,                                   ! Maximum Dry-Bulb Temperature {C}
  11.4,                                   ! Daily Dry-Bulb Temperature Range {deltaC}
  26.6,                                   ! Humidity Indicating Conditions at Maximum Dry-Bulb {BasedOnField A3}
  100177,                                 ! Barometric Pressure {Pa}
  3.4,                                    ! Wind Speed {m/s}
  200,                                    ! Wind Direction {deg}
  0,                                      ! Sky Clearness
  0,                                      ! Rain Indicator
  0,                                      ! Snow Indicator
  21,                                     ! Day of Month
  7,                                      ! Month
  SummerDesignDay,                        ! Day Type
  0,                                      ! Daylight Saving Time Indicator
  Wetbulb,                                ! Humidity Indicating Type
  ,                                       ! Humidity Indicating Day Schedule Name
  DefaultMultipliers,                     ! Dry-Bulb Temperature Range Modifier Type
  ,                                       ! Dry-Bulb Temperature Range Modifier Schedule Name
  ASHRAETau,                              ! Solar Model Indicator
  ,                                       ! Beam Solar Day Schedule Name
  ,                                       ! Diffuse Solar Day Schedule Name
  0.491,                                  ! ASHRAE Taub {dimensionless}
  2.003;                                  ! ASHRAE Taud {dimensionless}

OS:ComponentData,
  {988f1e2c-b313-48fc-adbb-8619c72f7ddf}, ! Handle
  Component Data 1,                       ! Name
  {17326b2f-32fa-434c-99d4-677211eda86f}, ! UUID
  {b79c699f-6ae7-4ae7-b9cc-25f17344797b}, ! Version UUID
  1366310811,                             ! Creation Timestamp
  1366310811,                             ! Version Timestamp
  {c92895d9-5baf-4efd-bafa-13ab9aa4ec5b}; ! Name of Object 1

