
OS:Version,
  {7fb71984-70ce-449b-8cb0-7afd1ac910db}, ! Handle
  0.9.3;                                  ! Version Identifier

OS:SizingPeriod:DesignDay,
  {28c58b90-779c-4f36-8638-de27b89654de}, ! Handle
  Greer GreenvL Spartanbrg Ap Ann Clg .4% Condns WB=>MDB, ! Name
  31.2,                                   ! Maximum Dry-Bulb Temperature {C}
  10.6,                                   ! Daily Dry-Bulb Temperature Range {deltaC}
  25,                                     ! Humidity Indicating Conditions at Maximum Dry-Bulb {BasedOnField A3}
  97866,                                  ! Barometric Pressure {Pa}
  3.6,                                    ! Wind Speed {m/s}
  230,                                    ! Wind Direction {deg}
  0,                                      ! Sky Clearness
  0,                                      ! Rain Indicator
  0,                                      ! Snow Indicator
  21,                                     ! Day of Month
  7,                                      ! Month
  SummerDesignDay,                        ! Day Type
  0,                                      ! Daylight Saving Time Indicator
  Wetbulb,                                ! Humidity Indicating Type
  ,                                       ! Humidity Indicating Day Schedule Name
  DefaultMultipliers,                     ! Dry-Bulb Temperature Range Modifier Type
  ,                                       ! Dry-Bulb Temperature Range Modifier Schedule Name
  ASHRAETau,                              ! Solar Model Indicator
  ,                                       ! Beam Solar Day Schedule Name
  ,                                       ! Diffuse Solar Day Schedule Name
  0.545,                                  ! ASHRAE Taub {dimensionless}
  1.796;                                  ! ASHRAE Taud {dimensionless}

OS:ComponentData,
  {d7284ebb-9e9a-49fd-bc5c-00adf7693c66}, ! Handle
  Component Data 1,                       ! Name
  {d81d0697-bfaa-460c-a461-b8f5bcf17607}, ! UUID
  {5c72d5da-0cb8-441c-bf1f-5b7e0fd6ff36}, ! Version UUID
  1366310368,                             ! Creation Timestamp
  1366310368,                             ! Version Timestamp
  {28c58b90-779c-4f36-8638-de27b89654de}; ! Name of Object 1

