
OS:Version,
  {6b734e58-a72a-42cd-ad62-2646b4a9c90a}, ! Handle
  0.9.3;                                  ! Version Identifier

OS:SizingPeriod:DesignDay,
  {e1c38788-6f68-46ad-acfb-de1fdc438ae3}, ! Handle
  LEXINGTON Ann Clg 2% Condns DB=>MWB,    ! Name
  30.6,                                   ! Maximum Dry-Bulb Temperature {C}
  10.2,                                   ! Daily Dry-Bulb Temperature Range {deltaC}
  22.7,                                   ! Humidity Indicating Conditions at Maximum Dry-Bulb {BasedOnField A3}
  97761,                                  ! Barometric Pressure {Pa}
  3.7,                                    ! Wind Speed {m/s}
  250,                                    ! Wind Direction {deg}
  0,                                      ! Sky Clearness
  0,                                      ! Rain Indicator
  0,                                      ! Snow Indicator
  21,                                     ! Day of Month
  7,                                      ! Month
  SummerDesignDay,                        ! Day Type
  0,                                      ! Daylight Saving Time Indicator
  Wetbulb,                                ! Humidity Indicating Type
  ,                                       ! Humidity Indicating Day Schedule Name
  DefaultMultipliers,                     ! Dry-Bulb Temperature Range Modifier Type
  ,                                       ! Dry-Bulb Temperature Range Modifier Schedule Name
  ASHRAETau,                              ! Solar Model Indicator
  ,                                       ! Beam Solar Day Schedule Name
  ,                                       ! Diffuse Solar Day Schedule Name
  0.503,                                  ! ASHRAE Taub {dimensionless}
  1.885;                                  ! ASHRAE Taud {dimensionless}

OS:ComponentData,
  {28616068-ce0c-4b50-bb34-b0b4332e8705}, ! Handle
  Component Data 1,                       ! Name
  {8ca7bfec-bcc0-47f4-a182-87d581c7f9b6}, ! UUID
  {2ebdcea9-0e78-4cf0-b4d2-91d6b95f14ed}, ! Version UUID
  1366307656,                             ! Creation Timestamp
  1366307656,                             ! Version Timestamp
  {e1c38788-6f68-46ad-acfb-de1fdc438ae3}; ! Name of Object 1

