
OS:Version,
  {5a230117-72e1-40db-822f-34625f108bf4}, ! Handle
  0.9.3;                                  ! Version Identifier

OS:SizingPeriod:DesignDay,
  {67576fd1-082e-418d-a23e-0dfd66eb5204}, ! Handle
  Altus Afb Ann Hum_n 99% Condns DP=>MCDB, ! Name
  -4.1,                                   ! Maximum Dry-Bulb Temperature {C}
  0,                                      ! Daily Dry-Bulb Temperature Range {deltaC}
  -14,                                    ! Humidity Indicating Conditions at Maximum Dry-Bulb {BasedOnField A3}
  96449,                                  ! Barometric Pressure {Pa}
  4.7,                                    ! Wind Speed {m/s}
  10,                                     ! Wind Direction {deg}
  0,                                      ! Sky Clearness
  0,                                      ! Rain Indicator
  0,                                      ! Snow Indicator
  21,                                     ! Day of Month
  1,                                      ! Month
  WinterDesignDay,                        ! Day Type
  0,                                      ! Daylight Saving Time Indicator
  Dewpoint,                               ! Humidity Indicating Type
  ,                                       ! Humidity Indicating Day Schedule Name
  DefaultMultipliers,                     ! Dry-Bulb Temperature Range Modifier Type
  ,                                       ! Dry-Bulb Temperature Range Modifier Schedule Name
  ASHRAEClearSky;                         ! Solar Model Indicator

OS:ComponentData,
  {4dcaad30-8e93-4860-abd7-22c662bbc297}, ! Handle
  Component Data 1,                       ! Name
  {c21d4bbd-5003-4ce6-893a-5ab27be39955}, ! UUID
  {af172831-bcac-4d6d-b24e-a1ecfbbd76a1}, ! Version UUID
  1366309877,                             ! Creation Timestamp
  1366309877,                             ! Version Timestamp
  {67576fd1-082e-418d-a23e-0dfd66eb5204}; ! Name of Object 1

