
OS:Version,
  {9a1ac46c-c8be-43ed-845e-1d560358a5ed}, ! Handle
  0.9.3;                                  ! Version Identifier

OS:SizingPeriod:DesignDay,
  {6c54f182-e985-47dc-822c-f3179b88e43d}, ! Handle
  Killeen Muni  Awos Ann Hum_n 99.6% Condns DP=>MCDB, ! Name
  1.7,                                    ! Maximum Dry-Bulb Temperature {C}
  0,                                      ! Daily Dry-Bulb Temperature Range {deltaC}
  -12.8,                                  ! Humidity Indicating Conditions at Maximum Dry-Bulb {BasedOnField A3}
  98264,                                  ! Barometric Pressure {Pa}
  4,                                      ! Wind Speed {m/s}
  0,                                      ! Wind Direction {deg}
  0,                                      ! Sky Clearness
  0,                                      ! Rain Indicator
  0,                                      ! Snow Indicator
  21,                                     ! Day of Month
  1,                                      ! Month
  WinterDesignDay,                        ! Day Type
  0,                                      ! Daylight Saving Time Indicator
  Dewpoint,                               ! Humidity Indicating Type
  ,                                       ! Humidity Indicating Day Schedule Name
  DefaultMultipliers,                     ! Dry-Bulb Temperature Range Modifier Type
  ,                                       ! Dry-Bulb Temperature Range Modifier Schedule Name
  ASHRAEClearSky;                         ! Solar Model Indicator

OS:ComponentData,
  {fa5e6825-05bb-4ba6-ac10-750fc38938c7}, ! Handle
  Component Data 1,                       ! Name
  {79297eb1-1a82-456c-904c-69534ac51c44}, ! UUID
  {36ab8f8c-847f-4e58-9b9f-2d2c796c3326}, ! Version UUID
  1366310767,                             ! Creation Timestamp
  1366310767,                             ! Version Timestamp
  {6c54f182-e985-47dc-822c-f3179b88e43d}; ! Name of Object 1

