
OS:Version,
  {961e52ef-da1d-4f36-b51e-8e7334437f74}, ! Handle
  0.9.3;                                  ! Version Identifier

OS:SizingPeriod:DesignDay,
  {8917a885-bc7c-40b2-a0d7-85bf3ab933f5}, ! Handle
  Cape May Co Ann Htg Wind 99% Condns WS=>MCDB, ! Name
  5.6,                                    ! Maximum Dry-Bulb Temperature {C}
  0,                                      ! Daily Dry-Bulb Temperature Range {deltaC}
  5.6,                                    ! Humidity Indicating Conditions at Maximum Dry-Bulb {BasedOnField A3}
  101241,                                 ! Barometric Pressure {Pa}
  11.1,                                   ! Wind Speed {m/s}
  320,                                    ! Wind Direction {deg}
  0,                                      ! Sky Clearness
  0,                                      ! Rain Indicator
  0,                                      ! Snow Indicator
  21,                                     ! Day of Month
  1,                                      ! Month
  WinterDesignDay,                        ! Day Type
  0,                                      ! Daylight Saving Time Indicator
  Wetbulb,                                ! Humidity Indicating Type
  ,                                       ! Humidity Indicating Day Schedule Name
  DefaultMultipliers,                     ! Dry-Bulb Temperature Range Modifier Type
  ,                                       ! Dry-Bulb Temperature Range Modifier Schedule Name
  ASHRAEClearSky;                         ! Solar Model Indicator

OS:ComponentData,
  {fe68a80d-3772-4fa9-b157-07f51481de90}, ! Handle
  Component Data 1,                       ! Name
  {e226bc55-2992-4c23-9720-7649fd14b574}, ! UUID
  {8e48057b-a4ce-44d5-bed8-d6abc4fc067e}, ! Version UUID
  1366309301,                             ! Creation Timestamp
  1366309301,                             ! Version Timestamp
  {8917a885-bc7c-40b2-a0d7-85bf3ab933f5}; ! Name of Object 1

