
OS:Version,
  {ddcbc969-a4d0-41d1-ad89-ec37c268168e}, ! Handle
  0.9.3;                                  ! Version Identifier

OS:SizingPeriod:DesignDay,
  {8b0fced9-4767-43de-bad7-c501663d4c55}, ! Handle
  LAKE_CHARLES Ann Clg 2% Condns DP=>MDB, ! Name
  28.5,                                   ! Maximum Dry-Bulb Temperature {C}
  8.6,                                    ! Daily Dry-Bulb Temperature Range {deltaC}
  25.5,                                   ! Humidity Indicating Conditions at Maximum Dry-Bulb {BasedOnField A3}
  101289,                                 ! Barometric Pressure {Pa}
  3.3,                                    ! Wind Speed {m/s}
  230,                                    ! Wind Direction {deg}
  0,                                      ! Sky Clearness
  0,                                      ! Rain Indicator
  0,                                      ! Snow Indicator
  21,                                     ! Day of Month
  7,                                      ! Month
  SummerDesignDay,                        ! Day Type
  0,                                      ! Daylight Saving Time Indicator
  Dewpoint,                               ! Humidity Indicating Type
  ,                                       ! Humidity Indicating Day Schedule Name
  DefaultMultipliers,                     ! Dry-Bulb Temperature Range Modifier Type
  ,                                       ! Dry-Bulb Temperature Range Modifier Schedule Name
  ASHRAETau,                              ! Solar Model Indicator
  ,                                       ! Beam Solar Day Schedule Name
  ,                                       ! Diffuse Solar Day Schedule Name
  0.528,                                  ! ASHRAE Taub {dimensionless}
  1.904;                                  ! ASHRAE Taud {dimensionless}

OS:ComponentData,
  {d46c3cf2-fc9b-4cbd-a5b2-f3b6b1ed30fd}, ! Handle
  Component Data 1,                       ! Name
  {5e193048-03fb-4292-afb5-c050557932ef}, ! UUID
  {c7328440-7004-4e9a-8416-f4d2e28af7d6}, ! Version UUID
  1366307724,                             ! Creation Timestamp
  1366307724,                             ! Version Timestamp
  {8b0fced9-4767-43de-bad7-c501663d4c55}; ! Name of Object 1

