
OS:Version,
  {6802e474-fb55-4472-a31e-573b5cab7ca3}, ! Handle
  0.9.3;                                  ! Version Identifier

OS:SizingPeriod:DesignDay,
  {4dab22f8-b521-4086-a4e1-5b1f0bf84e24}, ! Handle
  Greensboro Ann Htg Wind 99.6% Condns WS=>MCDB, ! Name
  10.1,                                   ! Maximum Dry-Bulb Temperature {C}
  0,                                      ! Daily Dry-Bulb Temperature Range {deltaC}
  10.1,                                   ! Humidity Indicating Conditions at Maximum Dry-Bulb {BasedOnField A3}
  98123,                                  ! Barometric Pressure {Pa}
  10.6,                                   ! Wind Speed {m/s}
  300,                                    ! Wind Direction {deg}
  0,                                      ! Sky Clearness
  0,                                      ! Rain Indicator
  0,                                      ! Snow Indicator
  21,                                     ! Day of Month
  1,                                      ! Month
  WinterDesignDay,                        ! Day Type
  0,                                      ! Daylight Saving Time Indicator
  Wetbulb,                                ! Humidity Indicating Type
  ,                                       ! Humidity Indicating Day Schedule Name
  DefaultMultipliers,                     ! Dry-Bulb Temperature Range Modifier Type
  ,                                       ! Dry-Bulb Temperature Range Modifier Schedule Name
  ASHRAEClearSky;                         ! Solar Model Indicator

OS:ComponentData,
  {ccaadff0-acdd-4506-bde4-beaf865c71cb}, ! Handle
  Component Data 1,                       ! Name
  {52ea5482-645f-442a-a339-2b24a12e11ad}, ! UUID
  {7b5d7be4-56c3-4729-b0cb-87d11b1d88e7}, ! Version UUID
  1366308927,                             ! Creation Timestamp
  1366308927,                             ! Version Timestamp
  {4dab22f8-b521-4086-a4e1-5b1f0bf84e24}; ! Name of Object 1

