
OS:Version,
  {1f72dc24-081a-4fc0-892e-afcb27589c05}, ! Handle
  0.9.3;                                  ! Version Identifier

OS:SizingPeriod:DesignDay,
  {42ce6980-304e-452c-98e7-a480bcc26382}, ! Handle
  BILLINGS Ann Clg 2% Condns Enth=>MDB,   ! Name
  28.1,                                   ! Maximum Dry-Bulb Temperature {C}
  14.5,                                   ! Daily Dry-Bulb Temperature Range {deltaC}
  52700,                                  ! Humidity Indicating Conditions at Maximum Dry-Bulb {BasedOnField A3}
  88919,                                  ! Barometric Pressure {Pa}
  4.2,                                    ! Wind Speed {m/s}
  50,                                     ! Wind Direction {deg}
  0,                                      ! Sky Clearness
  0,                                      ! Rain Indicator
  0,                                      ! Snow Indicator
  21,                                     ! Day of Month
  7,                                      ! Month
  SummerDesignDay,                        ! Day Type
  0,                                      ! Daylight Saving Time Indicator
  Enthalpy,                               ! Humidity Indicating Type
  ,                                       ! Humidity Indicating Day Schedule Name
  DefaultMultipliers,                     ! Dry-Bulb Temperature Range Modifier Type
  ,                                       ! Dry-Bulb Temperature Range Modifier Schedule Name
  ASHRAETau,                              ! Solar Model Indicator
  ,                                       ! Beam Solar Day Schedule Name
  ,                                       ! Diffuse Solar Day Schedule Name
  0.405,                                  ! ASHRAE Taub {dimensionless}
  2.084;                                  ! ASHRAE Taud {dimensionless}

