
OS:Version,
  {e9e07985-5593-4b78-9432-9707eac7baf2}, ! Handle
  0.9.3;                                  ! Version Identifier

OS:SizingPeriod:DesignDay,
  {e964230f-9c50-4bb4-962b-8b294bf385c0}, ! Handle
  BILLINGS Ann Clg 2% Condns Enth=>MDB,   ! Name
  28.1,                                   ! Maximum Dry-Bulb Temperature {C}
  14.5,                                   ! Daily Dry-Bulb Temperature Range {deltaC}
  52700,                                  ! Humidity Indicating Conditions at Maximum Dry-Bulb {BasedOnField A3}
  88919,                                  ! Barometric Pressure {Pa}
  4.2,                                    ! Wind Speed {m/s}
  50,                                     ! Wind Direction {deg}
  0,                                      ! Sky Clearness
  0,                                      ! Rain Indicator
  0,                                      ! Snow Indicator
  21,                                     ! Day of Month
  7,                                      ! Month
  SummerDesignDay,                        ! Day Type
  0,                                      ! Daylight Saving Time Indicator
  Enthalpy,                               ! Humidity Indicating Type
  ,                                       ! Humidity Indicating Day Schedule Name
  DefaultMultipliers,                     ! Dry-Bulb Temperature Range Modifier Type
  ,                                       ! Dry-Bulb Temperature Range Modifier Schedule Name
  ASHRAETau,                              ! Solar Model Indicator
  ,                                       ! Beam Solar Day Schedule Name
  ,                                       ! Diffuse Solar Day Schedule Name
  0.405,                                  ! ASHRAE Taub {dimensionless}
  2.084;                                  ! ASHRAE Taud {dimensionless}

OS:ComponentData,
  {32d7eca4-16f3-4842-a628-2dc601803c01}, ! Handle
  Component Data 1,                       ! Name
  {eb05f26e-8006-4f5f-8173-2f4b4fb44751}, ! UUID
  {9b839b29-b884-40fc-bbd3-210a75a4ffd7}, ! Version UUID
  1366308714,                             ! Creation Timestamp
  1366308714,                             ! Version Timestamp
  {e964230f-9c50-4bb4-962b-8b294bf385c0}; ! Name of Object 1

