
OS:Version,
  {7c6edda1-f112-4c0a-a214-5d35b049bb1d}, ! Handle
  0.9.3;                                  ! Version Identifier

OS:SizingPeriod:DesignDay,
  {7d5be1e3-e454-47a8-a2c0-8eb1aa1fe973}, ! Handle
  Bismarck Municipal Arpt  Isis Ann Htg 99% Condns DB, ! Name
  -25.5,                                  ! Maximum Dry-Bulb Temperature {C}
  0,                                      ! Daily Dry-Bulb Temperature Range {deltaC}
  -25.5,                                  ! Humidity Indicating Conditions at Maximum Dry-Bulb {BasedOnField A3}
  95438,                                  ! Barometric Pressure {Pa}
  3.7,                                    ! Wind Speed {m/s}
  320,                                    ! Wind Direction {deg}
  0,                                      ! Sky Clearness
  0,                                      ! Rain Indicator
  0,                                      ! Snow Indicator
  21,                                     ! Day of Month
  1,                                      ! Month
  WinterDesignDay,                        ! Day Type
  0,                                      ! Daylight Saving Time Indicator
  Wetbulb,                                ! Humidity Indicating Type
  ,                                       ! Humidity Indicating Day Schedule Name
  DefaultMultipliers,                     ! Dry-Bulb Temperature Range Modifier Type
  ,                                       ! Dry-Bulb Temperature Range Modifier Schedule Name
  ASHRAEClearSky;                         ! Solar Model Indicator

OS:ComponentData,
  {0c80b580-d3f4-45b6-8843-8653fa3cb02c}, ! Handle
  Component Data 1,                       ! Name
  {85c96c4f-ac60-40fa-80d3-c5e55ba44fcf}, ! UUID
  {3767fc41-55d7-48ce-a322-8ee578183f68}, ! Version UUID
  1366309005,                             ! Creation Timestamp
  1366309005,                             ! Version Timestamp
  {7d5be1e3-e454-47a8-a2c0-8eb1aa1fe973}; ! Name of Object 1

