
OS:Version,
  {24420847-f4c9-4723-874a-675d7508f506}, ! Handle
  0.9.3;                                  ! Version Identifier

OS:SizingPeriod:DesignDay,
  {84ae0e46-8883-47b2-93c1-e18d00941e73}, ! Handle
  Bridgeport Sikorsky Memorial Ann Htg 99.6% Condns DB, ! Name
  -11.8,                                  ! Maximum Dry-Bulb Temperature {C}
  0,                                      ! Daily Dry-Bulb Temperature Range {deltaC}
  -11.8,                                  ! Humidity Indicating Conditions at Maximum Dry-Bulb {BasedOnField A3}
  101289,                                 ! Barometric Pressure {Pa}
  5.2,                                    ! Wind Speed {m/s}
  350,                                    ! Wind Direction {deg}
  0,                                      ! Sky Clearness
  0,                                      ! Rain Indicator
  0,                                      ! Snow Indicator
  21,                                     ! Day of Month
  1,                                      ! Month
  WinterDesignDay,                        ! Day Type
  0,                                      ! Daylight Saving Time Indicator
  Wetbulb,                                ! Humidity Indicating Type
  ,                                       ! Humidity Indicating Day Schedule Name
  DefaultMultipliers,                     ! Dry-Bulb Temperature Range Modifier Type
  ,                                       ! Dry-Bulb Temperature Range Modifier Schedule Name
  ASHRAEClearSky;                         ! Solar Model Indicator

OS:ComponentData,
  {a0c24125-0ea8-444d-bbf8-9ef0edc500cb}, ! Handle
  Component Data 1,                       ! Name
  {7a94fe72-504a-425d-96ca-d5af35e74872}, ! UUID
  {b1cfeaa2-de45-4213-a2c0-02463d89ddbd}, ! Version UUID
  1366306745,                             ! Creation Timestamp
  1366306745,                             ! Version Timestamp
  {84ae0e46-8883-47b2-93c1-e18d00941e73}; ! Name of Object 1

