
OS:Version,
  {be0ffe8a-5f66-46b7-bce3-ee60b8ce98be}, ! Handle
  0.9.3;                                  ! Version Identifier

OS:SizingPeriod:DesignDay,
  {71c168d9-7dd4-4516-bad6-e5fe566066c2}, ! Handle
  Dallas Love Field Ann Htg 99% Condns DB, ! Name
  -2.6,                                   ! Maximum Dry-Bulb Temperature {C}
  0,                                      ! Daily Dry-Bulb Temperature Range {deltaC}
  -2.6,                                   ! Humidity Indicating Conditions at Maximum Dry-Bulb {BasedOnField A3}
  99726,                                  ! Barometric Pressure {Pa}
  4.9,                                    ! Wind Speed {m/s}
  0,                                      ! Wind Direction {deg}
  0,                                      ! Sky Clearness
  0,                                      ! Rain Indicator
  0,                                      ! Snow Indicator
  21,                                     ! Day of Month
  1,                                      ! Month
  WinterDesignDay,                        ! Day Type
  0,                                      ! Daylight Saving Time Indicator
  Wetbulb,                                ! Humidity Indicating Type
  ,                                       ! Humidity Indicating Day Schedule Name
  DefaultMultipliers,                     ! Dry-Bulb Temperature Range Modifier Type
  ,                                       ! Dry-Bulb Temperature Range Modifier Schedule Name
  ASHRAEClearSky;                         ! Solar Model Indicator

OS:ComponentData,
  {9b1f9b9d-b4db-4be1-84ff-80f258207686}, ! Handle
  Component Data 1,                       ! Name
  {51f40b09-5a3d-4eea-b746-5b77ff23f8d0}, ! UUID
  {e3a4be46-d60b-4add-bc66-314ee29b2502}, ! Version UUID
  1366310658,                             ! Creation Timestamp
  1366310658,                             ! Version Timestamp
  {71c168d9-7dd4-4516-bad6-e5fe566066c2}; ! Name of Object 1

