
OS:Version,
  {c337f2ec-6606-4b64-af1a-3add8ef19599}, ! Handle
  0.9.3;                                  ! Version Identifier

OS:SizingPeriod:DesignDay,
  {0c70fd47-b22a-4955-a659-de52ccd981cf}, ! Handle
  Draughon Miller Cen Ann Clg 1% Condns DP=>MDB, ! Name
  27,                                     ! Maximum Dry-Bulb Temperature {C}
  12.4,                                   ! Daily Dry-Bulb Temperature Range {deltaC}
  23.1,                                   ! Humidity Indicating Conditions at Maximum Dry-Bulb {BasedOnField A3}
  98792,                                  ! Barometric Pressure {Pa}
  4.6,                                    ! Wind Speed {m/s}
  180,                                    ! Wind Direction {deg}
  0,                                      ! Sky Clearness
  0,                                      ! Rain Indicator
  0,                                      ! Snow Indicator
  21,                                     ! Day of Month
  8,                                      ! Month
  SummerDesignDay,                        ! Day Type
  0,                                      ! Daylight Saving Time Indicator
  Dewpoint,                               ! Humidity Indicating Type
  ,                                       ! Humidity Indicating Day Schedule Name
  DefaultMultipliers,                     ! Dry-Bulb Temperature Range Modifier Type
  ,                                       ! Dry-Bulb Temperature Range Modifier Schedule Name
  ASHRAETau,                              ! Solar Model Indicator
  ,                                       ! Beam Solar Day Schedule Name
  ,                                       ! Diffuse Solar Day Schedule Name
  0.456,                                  ! ASHRAE Taub {dimensionless}
  2.108;                                  ! ASHRAE Taud {dimensionless}

OS:ComponentData,
  {de7fab3c-36ee-449a-918b-a94a7aaaffef}, ! Handle
  Component Data 1,                       ! Name
  {d2b65901-8315-4c3d-8934-62120c426b9c}, ! UUID
  {43c011a7-07ab-415e-b94c-87a51aa64299}, ! Version UUID
  1366310681,                             ! Creation Timestamp
  1366310681,                             ! Version Timestamp
  {0c70fd47-b22a-4955-a659-de52ccd981cf}; ! Name of Object 1

