
OS:Version,
  {d56ff540-404d-4bf2-86cb-c0ce1b6f5956}, ! Handle
  0.9.3;                                  ! Version Identifier

OS:SizingPeriod:DesignDay,
  {b72d5f1c-5f66-4e1e-a8ea-e11d305ecf00}, ! Handle
  College Station Easterwood Fl Ann Hum_n 99.6% Condns DP=>MCDB, ! Name
  0.8,                                    ! Maximum Dry-Bulb Temperature {C}
  0,                                      ! Daily Dry-Bulb Temperature Range {deltaC}
  -11,                                    ! Humidity Indicating Conditions at Maximum Dry-Bulb {BasedOnField A3}
  100177,                                 ! Barometric Pressure {Pa}
  3.8,                                    ! Wind Speed {m/s}
  350,                                    ! Wind Direction {deg}
  0,                                      ! Sky Clearness
  0,                                      ! Rain Indicator
  0,                                      ! Snow Indicator
  21,                                     ! Day of Month
  1,                                      ! Month
  WinterDesignDay,                        ! Day Type
  0,                                      ! Daylight Saving Time Indicator
  Dewpoint,                               ! Humidity Indicating Type
  ,                                       ! Humidity Indicating Day Schedule Name
  DefaultMultipliers,                     ! Dry-Bulb Temperature Range Modifier Type
  ,                                       ! Dry-Bulb Temperature Range Modifier Schedule Name
  ASHRAEClearSky;                         ! Solar Model Indicator

OS:ComponentData,
  {cac92ea7-5838-409a-8253-982dc08a54b5}, ! Handle
  Component Data 1,                       ! Name
  {50741d67-91b7-4761-8829-8158ba664d39}, ! UUID
  {bb38c52f-1550-408c-bc82-3ba32caaded2}, ! Version UUID
  1366310617,                             ! Creation Timestamp
  1366310617,                             ! Version Timestamp
  {b72d5f1c-5f66-4e1e-a8ea-e11d305ecf00}; ! Name of Object 1

