
OS:Version,
  {a728f036-16a5-488b-abac-46baee44a8e9}, ! Handle
  0.9.3;                                  ! Version Identifier

OS:SizingPeriod:DesignDay,
  {307b6bd7-321b-4731-8a82-d76167d8725a}, ! Handle
  Atlanta Ann Htg Wind 99% Condns WS=>MCDB, ! Name
  3.4,                                    ! Maximum Dry-Bulb Temperature {C}
  0,                                      ! Daily Dry-Bulb Temperature Range {deltaC}
  3.4,                                    ! Humidity Indicating Conditions at Maximum Dry-Bulb {BasedOnField A3}
  97598,                                  ! Barometric Pressure {Pa}
  10.7,                                   ! Wind Speed {m/s}
  320,                                    ! Wind Direction {deg}
  0,                                      ! Sky Clearness
  0,                                      ! Rain Indicator
  0,                                      ! Snow Indicator
  21,                                     ! Day of Month
  1,                                      ! Month
  WinterDesignDay,                        ! Day Type
  0,                                      ! Daylight Saving Time Indicator
  Wetbulb,                                ! Humidity Indicating Type
  ,                                       ! Humidity Indicating Day Schedule Name
  DefaultMultipliers,                     ! Dry-Bulb Temperature Range Modifier Type
  ,                                       ! Dry-Bulb Temperature Range Modifier Schedule Name
  ASHRAEClearSky;                         ! Solar Model Indicator

OS:ComponentData,
  {61924158-533d-4d32-9755-e8a9a4ce8d45}, ! Handle
  Component Data 1,                       ! Name
  {e580ce99-d0be-4ff2-be1c-db4422e313f4}, ! UUID
  {5ffc27bc-6064-410a-a327-60ba4c408d40}, ! Version UUID
  1366306975,                             ! Creation Timestamp
  1366306975,                             ! Version Timestamp
  {307b6bd7-321b-4731-8a82-d76167d8725a}; ! Name of Object 1

