
OS:Version,
  {dbc12453-680e-4cf4-8d09-27df74d76cd4}, ! Handle
  0.9.3;                                  ! Version Identifier

OS:SizingPeriod:DesignDay,
  {c006d8fa-9e61-42f4-9f19-c825db818f6f}, ! Handle
  Dodge City Ann Clg 1% Condns DP=>MDB,   ! Name
  25.9,                                   ! Maximum Dry-Bulb Temperature {C}
  13.9,                                   ! Daily Dry-Bulb Temperature Range {deltaC}
  20.6,                                   ! Humidity Indicating Conditions at Maximum Dry-Bulb {BasedOnField A3}
  92188,                                  ! Barometric Pressure {Pa}
  7.4,                                    ! Wind Speed {m/s}
  180,                                    ! Wind Direction {deg}
  0,                                      ! Sky Clearness
  0,                                      ! Rain Indicator
  0,                                      ! Snow Indicator
  21,                                     ! Day of Month
  7,                                      ! Month
  SummerDesignDay,                        ! Day Type
  0,                                      ! Daylight Saving Time Indicator
  Dewpoint,                               ! Humidity Indicating Type
  ,                                       ! Humidity Indicating Day Schedule Name
  DefaultMultipliers,                     ! Dry-Bulb Temperature Range Modifier Type
  ,                                       ! Dry-Bulb Temperature Range Modifier Schedule Name
  ASHRAETau,                              ! Solar Model Indicator
  ,                                       ! Beam Solar Day Schedule Name
  ,                                       ! Diffuse Solar Day Schedule Name
  0.419,                                  ! ASHRAE Taub {dimensionless}
  2.142;                                  ! ASHRAE Taud {dimensionless}

OS:ComponentData,
  {010bf2f4-eed3-4492-b637-c0b2792d1c01}, ! Handle
  Component Data 1,                       ! Name
  {03eac6cd-8d19-4924-ae01-ebcdd8cc02ba}, ! UUID
  {41055657-c151-42ab-adff-a4c015aa08e7}, ! Version UUID
  1366307514,                             ! Creation Timestamp
  1366307514,                             ! Version Timestamp
  {c006d8fa-9e61-42f4-9f19-c825db818f6f}; ! Name of Object 1

