
OS:Version,
  {36cc8199-8ab9-4758-b326-8b6ba3466489}, ! Handle
  0.9.3;                                  ! Version Identifier

OS:SizingPeriod:DesignDay,
  {8bdcd3c5-132b-4957-bf16-f88528d66ddd}, ! Handle
  Alexandria Municipal Ap Ann Clg 2% Condns WB=>MDB, ! Name
  26.4,                                   ! Maximum Dry-Bulb Temperature {C}
  10.4,                                   ! Daily Dry-Bulb Temperature Range {deltaC}
  21.8,                                   ! Humidity Indicating Conditions at Maximum Dry-Bulb {BasedOnField A3}
  96230,                                  ! Barometric Pressure {Pa}
  6.2,                                    ! Wind Speed {m/s}
  180,                                    ! Wind Direction {deg}
  0,                                      ! Sky Clearness
  0,                                      ! Rain Indicator
  0,                                      ! Snow Indicator
  21,                                     ! Day of Month
  7,                                      ! Month
  SummerDesignDay,                        ! Day Type
  0,                                      ! Daylight Saving Time Indicator
  Wetbulb,                                ! Humidity Indicating Type
  ,                                       ! Humidity Indicating Day Schedule Name
  DefaultMultipliers,                     ! Dry-Bulb Temperature Range Modifier Type
  ,                                       ! Dry-Bulb Temperature Range Modifier Schedule Name
  ASHRAETau,                              ! Solar Model Indicator
  ,                                       ! Beam Solar Day Schedule Name
  ,                                       ! Diffuse Solar Day Schedule Name
  0.39,                                   ! ASHRAE Taub {dimensionless}
  2.268;                                  ! ASHRAE Taud {dimensionless}

OS:ComponentData,
  {574211f1-6616-4931-892d-0420458a1492}, ! Handle
  Component Data 1,                       ! Name
  {cee235dd-2ca0-4032-a4ca-a61e8577ca3c}, ! UUID
  {21148759-3b33-4eff-80f9-9eb3008378d4}, ! Version UUID
  1366308145,                             ! Creation Timestamp
  1366308145,                             ! Version Timestamp
  {8bdcd3c5-132b-4957-bf16-f88528d66ddd}; ! Name of Object 1

