
OS:Version,
  {9c751710-08df-4512-905d-5246ee1402cb}, ! Handle
  0.9.3;                                  ! Version Identifier

OS:SizingPeriod:DesignDay,
  {b677ed6a-6052-48a9-8791-0b7776a77c68}, ! Handle
  Cadillac Wexford Co Ap Ann Hum_n 99.6% Condns DP=>MCDB, ! Name
  -22.7,                                  ! Maximum Dry-Bulb Temperature {C}
  0,                                      ! Daily Dry-Bulb Temperature Range {deltaC}
  -26.2,                                  ! Humidity Indicating Conditions at Maximum Dry-Bulb {BasedOnField A3}
  96657,                                  ! Barometric Pressure {Pa}
  1,                                      ! Wind Speed {m/s}
  320,                                    ! Wind Direction {deg}
  0,                                      ! Sky Clearness
  0,                                      ! Rain Indicator
  0,                                      ! Snow Indicator
  21,                                     ! Day of Month
  1,                                      ! Month
  WinterDesignDay,                        ! Day Type
  0,                                      ! Daylight Saving Time Indicator
  Dewpoint,                               ! Humidity Indicating Type
  ,                                       ! Humidity Indicating Day Schedule Name
  DefaultMultipliers,                     ! Dry-Bulb Temperature Range Modifier Type
  ,                                       ! Dry-Bulb Temperature Range Modifier Schedule Name
  ASHRAEClearSky;                         ! Solar Model Indicator

OS:ComponentData,
  {6052ca68-f9fc-42e9-a5d9-faf4e8eed012}, ! Handle
  Component Data 1,                       ! Name
  {971c8421-a169-45a8-8f2a-97e628788b1a}, ! UUID
  {fd587624-ab63-4b4a-add9-50deede5af97}, ! Version UUID
  1366307963,                             ! Creation Timestamp
  1366307963,                             ! Version Timestamp
  {b677ed6a-6052-48a9-8791-0b7776a77c68}; ! Name of Object 1

