
OS:Version,
  {6b9c8f4f-de30-4f0a-9a78-4b2e8bb0e07d}, ! Handle
  0.9.3;                                  ! Version Identifier

OS:SizingPeriod:DesignDay,
  {0115f01c-5306-4d46-b639-3765e3a7c31e}, ! Handle
  Grand Junction Walker Field Ann Clg .4% Condns DP=>MDB, ! Name
  20.4,                                   ! Maximum Dry-Bulb Temperature {C}
  15.3,                                   ! Daily Dry-Bulb Temperature Range {deltaC}
  16.1,                                   ! Humidity Indicating Conditions at Maximum Dry-Bulb {BasedOnField A3}
  84816,                                  ! Barometric Pressure {Pa}
  4.6,                                    ! Wind Speed {m/s}
  270,                                    ! Wind Direction {deg}
  0,                                      ! Sky Clearness
  0,                                      ! Rain Indicator
  0,                                      ! Snow Indicator
  21,                                     ! Day of Month
  7,                                      ! Month
  SummerDesignDay,                        ! Day Type
  0,                                      ! Daylight Saving Time Indicator
  Dewpoint,                               ! Humidity Indicating Type
  ,                                       ! Humidity Indicating Day Schedule Name
  DefaultMultipliers,                     ! Dry-Bulb Temperature Range Modifier Type
  ,                                       ! Dry-Bulb Temperature Range Modifier Schedule Name
  ASHRAETau,                              ! Solar Model Indicator
  ,                                       ! Beam Solar Day Schedule Name
  ,                                       ! Diffuse Solar Day Schedule Name
  0.41,                                   ! ASHRAE Taub {dimensionless}
  2.106;                                  ! ASHRAE Taud {dimensionless}

OS:ComponentData,
  {afe36f3a-5d39-4340-8a46-4e2a910183be}, ! Handle
  Component Data 1,                       ! Name
  {249e4f53-8ed6-44c4-a893-dba82ff33f7c}, ! UUID
  {947637fe-9a28-4ef6-84f5-b345e55b9daa}, ! Version UUID
  1366306699,                             ! Creation Timestamp
  1366306699,                             ! Version Timestamp
  {0115f01c-5306-4d46-b639-3765e3a7c31e}; ! Name of Object 1

