
OS:Version,
  {a1a3e99f-3809-435a-9a0e-44269412afa0}, ! Handle
  0.9.3;                                  ! Version Identifier

OS:SizingPeriod:DesignDay,
  {3a8e9917-9cbf-4e21-8620-d041a0423ffc}, ! Handle
  Fairbanks Eielson A Ann Htg Wind 99.6% Condns WS=>MCDB, ! Name
  -6.6,                                   ! Maximum Dry-Bulb Temperature {C}
  0,                                      ! Daily Dry-Bulb Temperature Range {deltaC}
  -6.6,                                   ! Humidity Indicating Conditions at Maximum Dry-Bulb {BasedOnField A3}
  99335,                                  ! Barometric Pressure {Pa}
  8.1,                                    ! Wind Speed {m/s}
  160,                                    ! Wind Direction {deg}
  0,                                      ! Sky Clearness
  0,                                      ! Rain Indicator
  0,                                      ! Snow Indicator
  21,                                     ! Day of Month
  1,                                      ! Month
  WinterDesignDay,                        ! Day Type
  0,                                      ! Daylight Saving Time Indicator
  Wetbulb,                                ! Humidity Indicating Type
  ,                                       ! Humidity Indicating Day Schedule Name
  DefaultMultipliers,                     ! Dry-Bulb Temperature Range Modifier Type
  ,                                       ! Dry-Bulb Temperature Range Modifier Schedule Name
  ASHRAEClearSky;                         ! Solar Model Indicator

OS:ComponentData,
  {492694a9-698b-48a8-bf1b-3915f4c5d44e}, ! Handle
  Component Data 1,                       ! Name
  {a98d576a-f3d4-420a-ae54-c07c84216ad0}, ! UUID
  {ec0d5272-7afb-447a-b33f-2f353aeed8ce}, ! Version UUID
  1366305243,                             ! Creation Timestamp
  1366305243,                             ! Version Timestamp
  {3a8e9917-9cbf-4e21-8620-d041a0423ffc}; ! Name of Object 1

