
OS:Version,
  {0fc402f4-2d2d-42c2-95f5-3360f64b964f}, ! Handle
  0.9.3;                                  ! Version Identifier

OS:SizingPeriod:DesignDay,
  {d201b9be-c20e-4d33-b9ec-889ce73d5495}, ! Handle
  Casa Granda  Awos Ann Clg .4% Condns DB=>MWB, ! Name
  42.5,                                   ! Maximum Dry-Bulb Temperature {C}
  14.5,                                   ! Daily Dry-Bulb Temperature Range {deltaC}
  20.7,                                   ! Humidity Indicating Conditions at Maximum Dry-Bulb {BasedOnField A3}
  96081,                                  ! Barometric Pressure {Pa}
  4.2,                                    ! Wind Speed {m/s}
  270,                                    ! Wind Direction {deg}
  0,                                      ! Sky Clearness
  0,                                      ! Rain Indicator
  0,                                      ! Snow Indicator
  21,                                     ! Day of Month
  7,                                      ! Month
  SummerDesignDay,                        ! Day Type
  0,                                      ! Daylight Saving Time Indicator
  Wetbulb,                                ! Humidity Indicating Type
  ,                                       ! Humidity Indicating Day Schedule Name
  DefaultMultipliers,                     ! Dry-Bulb Temperature Range Modifier Type
  ,                                       ! Dry-Bulb Temperature Range Modifier Schedule Name
  ASHRAETau,                              ! Solar Model Indicator
  ,                                       ! Beam Solar Day Schedule Name
  ,                                       ! Diffuse Solar Day Schedule Name
  0.575,                                  ! ASHRAE Taub {dimensionless}
  1.678;                                  ! ASHRAE Taud {dimensionless}

OS:ComponentData,
  {35953b8d-7be7-4a92-ad4c-62e719e40d3e}, ! Handle
  Component Data 1,                       ! Name
  {b3820ac1-6177-43db-92ca-bfce440f9302}, ! UUID
  {3f41a1e5-66f7-4037-92f6-14c2eb8c21ab}, ! Version UUID
  1366306261,                             ! Creation Timestamp
  1366306261,                             ! Version Timestamp
  {d201b9be-c20e-4d33-b9ec-889ce73d5495}; ! Name of Object 1

