
OS:Version,
  {41a36369-05e4-42f7-9b5f-8253616d9746}, ! Handle
  0.9.3;                                  ! Version Identifier

OS:SizingPeriod:DesignDay,
  {17a645d4-aea6-42c3-9452-5d370b9200db}, ! Handle
  Ely Muni Ann Clg 1% Condns DB=>MWB,     ! Name
  27.7,                                   ! Maximum Dry-Bulb Temperature {C}
  12.2,                                   ! Daily Dry-Bulb Temperature Range {deltaC}
  20.3,                                   ! Humidity Indicating Conditions at Maximum Dry-Bulb {BasedOnField A3}
  95977,                                  ! Barometric Pressure {Pa}
  4,                                      ! Wind Speed {m/s}
  230,                                    ! Wind Direction {deg}
  0,                                      ! Sky Clearness
  0,                                      ! Rain Indicator
  0,                                      ! Snow Indicator
  21,                                     ! Day of Month
  7,                                      ! Month
  SummerDesignDay,                        ! Day Type
  0,                                      ! Daylight Saving Time Indicator
  Wetbulb,                                ! Humidity Indicating Type
  ,                                       ! Humidity Indicating Day Schedule Name
  DefaultMultipliers,                     ! Dry-Bulb Temperature Range Modifier Type
  ,                                       ! Dry-Bulb Temperature Range Modifier Schedule Name
  ASHRAETau,                              ! Solar Model Indicator
  ,                                       ! Beam Solar Day Schedule Name
  ,                                       ! Diffuse Solar Day Schedule Name
  0.408,                                  ! ASHRAE Taub {dimensionless}
  2.169;                                  ! ASHRAE Taud {dimensionless}

OS:ComponentData,
  {fcb79732-c758-4ade-b250-3843971bbe7a}, ! Handle
  Component Data 1,                       ! Name
  {42b41d4f-922f-4f29-bb9e-d3772ab4fc02}, ! UUID
  {119c3ffd-c702-422e-907d-c3527ecc2515}, ! Version UUID
  1366308215,                             ! Creation Timestamp
  1366308215,                             ! Version Timestamp
  {17a645d4-aea6-42c3-9452-5d370b9200db}; ! Name of Object 1

