
OS:Version,
  {ca07b4f3-48cb-4ad8-a4e4-e0c7941f9f21}, ! Handle
  0.9.3;                                  ! Version Identifier

OS:SizingPeriod:DesignDay,
  {ec109475-17c0-43ce-87ee-577cf8d6ee00}, ! Handle
  Bozeman Gallatin Field Ann Hum_n 99.6% Condns DP=>MCDB, ! Name
  -27.2,                                  ! Maximum Dry-Bulb Temperature {C}
  0,                                      ! Daily Dry-Bulb Temperature Range {deltaC}
  -31.5,                                  ! Humidity Indicating Conditions at Maximum Dry-Bulb {BasedOnField A3}
  86135,                                  ! Barometric Pressure {Pa}
  1.9,                                    ! Wind Speed {m/s}
  160,                                    ! Wind Direction {deg}
  0,                                      ! Sky Clearness
  0,                                      ! Rain Indicator
  0,                                      ! Snow Indicator
  21,                                     ! Day of Month
  12,                                     ! Month
  WinterDesignDay,                        ! Day Type
  0,                                      ! Daylight Saving Time Indicator
  Dewpoint,                               ! Humidity Indicating Type
  ,                                       ! Humidity Indicating Day Schedule Name
  DefaultMultipliers,                     ! Dry-Bulb Temperature Range Modifier Type
  ,                                       ! Dry-Bulb Temperature Range Modifier Schedule Name
  ASHRAEClearSky;                         ! Solar Model Indicator

OS:ComponentData,
  {bdb844f0-3bdd-483b-9c23-b343c5199fc2}, ! Handle
  Component Data 1,                       ! Name
  {ca3ddd96-8976-4ef7-be6f-617750d3ab32}, ! UUID
  {139c8d3b-c23f-4e0f-a9ae-1f0ae74f9587}, ! Version UUID
  1366308717,                             ! Creation Timestamp
  1366308717,                             ! Version Timestamp
  {ec109475-17c0-43ce-87ee-577cf8d6ee00}; ! Name of Object 1

