
OS:Version,
  {e17e4bd3-6e1e-49d6-a64a-4f2b25942443}, ! Handle
  0.9.3;                                  ! Version Identifier

OS:SizingPeriod:DesignDay,
  {f4186a06-4d73-4b10-8e96-e82c2db10290}, ! Handle
  Fort Bragg Simmons Aaf Ann Htg 99.6% Condns DB, ! Name
  -5.7,                                   ! Maximum Dry-Bulb Temperature {C}
  0,                                      ! Daily Dry-Bulb Temperature Range {deltaC}
  -5.7,                                   ! Humidity Indicating Conditions at Maximum Dry-Bulb {BasedOnField A3}
  100213,                                 ! Barometric Pressure {Pa}
  2,                                      ! Wind Speed {m/s}
  0,                                      ! Wind Direction {deg}
  0,                                      ! Sky Clearness
  0,                                      ! Rain Indicator
  0,                                      ! Snow Indicator
  21,                                     ! Day of Month
  1,                                      ! Month
  WinterDesignDay,                        ! Day Type
  0,                                      ! Daylight Saving Time Indicator
  Wetbulb,                                ! Humidity Indicating Type
  ,                                       ! Humidity Indicating Day Schedule Name
  DefaultMultipliers,                     ! Dry-Bulb Temperature Range Modifier Type
  ,                                       ! Dry-Bulb Temperature Range Modifier Schedule Name
  ASHRAEClearSky;                         ! Solar Model Indicator

OS:ComponentData,
  {c131b418-ae8f-485f-8f2b-6611cf8a553f}, ! Handle
  Component Data 1,                       ! Name
  {4d11a941-4f21-4afb-b598-356c55f704c8}, ! UUID
  {505e615a-3aad-4ae0-9222-dc0261697916}, ! Version UUID
  1366308918,                             ! Creation Timestamp
  1366308918,                             ! Version Timestamp
  {f4186a06-4d73-4b10-8e96-e82c2db10290}; ! Name of Object 1

