
OS:Version,
  {3df0facb-5fb0-42cc-8978-e566c33b9c18}, ! Handle
  0.9.3;                                  ! Version Identifier

OS:SizingPeriod:DesignDay,
  {dbfcd9c4-c18d-4e9e-88cc-7c4993cc9bd6}, ! Handle
  Laredo Intl Ap  Ut Ann Clg .4% Condns Enth=>MDB, ! Name
  33.1,                                   ! Maximum Dry-Bulb Temperature {C}
  11.6,                                   ! Daily Dry-Bulb Temperature Range {deltaC}
  81500,                                  ! Humidity Indicating Conditions at Maximum Dry-Bulb {BasedOnField A3}
  99631,                                  ! Barometric Pressure {Pa}
  6,                                      ! Wind Speed {m/s}
  130,                                    ! Wind Direction {deg}
  0,                                      ! Sky Clearness
  0,                                      ! Rain Indicator
  0,                                      ! Snow Indicator
  21,                                     ! Day of Month
  8,                                      ! Month
  SummerDesignDay,                        ! Day Type
  0,                                      ! Daylight Saving Time Indicator
  Enthalpy,                               ! Humidity Indicating Type
  ,                                       ! Humidity Indicating Day Schedule Name
  DefaultMultipliers,                     ! Dry-Bulb Temperature Range Modifier Type
  ,                                       ! Dry-Bulb Temperature Range Modifier Schedule Name
  ASHRAETau,                              ! Solar Model Indicator
  ,                                       ! Beam Solar Day Schedule Name
  ,                                       ! Diffuse Solar Day Schedule Name
  0.469,                                  ! ASHRAE Taub {dimensionless}
  2.06;                                   ! ASHRAE Taud {dimensionless}

OS:ComponentData,
  {95459ae4-2b54-44ab-81dd-4d1014992ee8}, ! Handle
  Component Data 1,                       ! Name
  {3781a5d2-aff1-45c3-802e-a938d4b16e75}, ! UUID
  {c4019e1b-1c06-40b8-b574-f2ffdf53cefd}, ! Version UUID
  1366310784,                             ! Creation Timestamp
  1366310784,                             ! Version Timestamp
  {dbfcd9c4-c18d-4e9e-88cc-7c4993cc9bd6}; ! Name of Object 1

