
OS:Version,
  {b8b6eaf9-c0da-47d9-a070-d93be1bfca3d}, ! Handle
  0.9.3;                                  ! Version Identifier

OS:SizingPeriod:DesignDay,
  {261e922b-da5c-43d6-ac3c-8cb99ea42aff}, ! Handle
  Gadsen Muni  Awos Ann Clg 2% Condns WB=>MDB, ! Name
  29.9,                                   ! Maximum Dry-Bulb Temperature {C}
  10.9,                                   ! Daily Dry-Bulb Temperature Range {deltaC}
  24.4,                                   ! Humidity Indicating Conditions at Maximum Dry-Bulb {BasedOnField A3}
  99264,                                  ! Barometric Pressure {Pa}
  3,                                      ! Wind Speed {m/s}
  300,                                    ! Wind Direction {deg}
  0,                                      ! Sky Clearness
  0,                                      ! Rain Indicator
  0,                                      ! Snow Indicator
  21,                                     ! Day of Month
  7,                                      ! Month
  SummerDesignDay,                        ! Day Type
  0,                                      ! Daylight Saving Time Indicator
  Wetbulb,                                ! Humidity Indicating Type
  ,                                       ! Humidity Indicating Day Schedule Name
  DefaultMultipliers,                     ! Dry-Bulb Temperature Range Modifier Type
  ,                                       ! Dry-Bulb Temperature Range Modifier Schedule Name
  ASHRAETau,                              ! Solar Model Indicator
  ,                                       ! Beam Solar Day Schedule Name
  ,                                       ! Diffuse Solar Day Schedule Name
  0.58,                                   ! ASHRAE Taub {dimensionless}
  1.728;                                  ! ASHRAE Taud {dimensionless}

OS:ComponentData,
  {3b7d05e5-00b1-4b95-89ce-de2489c0bbbe}, ! Handle
  Component Data 1,                       ! Name
  {e7d7d85a-8189-408c-b5f9-9aaee6186506}, ! UUID
  {90433ee0-9e63-455c-91ae-42977cae0644}, ! Version UUID
  1366305663,                             ! Creation Timestamp
  1366305663,                             ! Version Timestamp
  {261e922b-da5c-43d6-ac3c-8cb99ea42aff}; ! Name of Object 1

