
OS:Version,
  {703fbe30-4447-4678-a710-0f7d49e0e7ce}, ! Handle
  0.9.3;                                  ! Version Identifier

OS:SizingPeriod:DesignDay,
  {13585237-d2ed-4587-8732-770c5af8bc4b}, ! Handle
  Escanaba  Awos Ann Hum_n 99% Condns DP=>MCDB, ! Name
  -18.5,                                  ! Maximum Dry-Bulb Temperature {C}
  0,                                      ! Daily Dry-Bulb Temperature Range {deltaC}
  -25.9,                                  ! Humidity Indicating Conditions at Maximum Dry-Bulb {BasedOnField A3}
  99099,                                  ! Barometric Pressure {Pa}
  2.9,                                    ! Wind Speed {m/s}
  270,                                    ! Wind Direction {deg}
  0,                                      ! Sky Clearness
  0,                                      ! Rain Indicator
  0,                                      ! Snow Indicator
  21,                                     ! Day of Month
  1,                                      ! Month
  WinterDesignDay,                        ! Day Type
  0,                                      ! Daylight Saving Time Indicator
  Dewpoint,                               ! Humidity Indicating Type
  ,                                       ! Humidity Indicating Day Schedule Name
  DefaultMultipliers,                     ! Dry-Bulb Temperature Range Modifier Type
  ,                                       ! Dry-Bulb Temperature Range Modifier Schedule Name
  ASHRAEClearSky;                         ! Solar Model Indicator

OS:ComponentData,
  {fbcf53d3-1a9c-4aa6-a0ca-334e4e8ce59c}, ! Handle
  Component Data 1,                       ! Name
  {f17eef60-c700-491a-913d-3d5cbfd52cb7}, ! UUID
  {05cfe57f-8bf7-4641-bae5-408e37aea1e1}, ! Version UUID
  1366307991,                             ! Creation Timestamp
  1366307991,                             ! Version Timestamp
  {13585237-d2ed-4587-8732-770c5af8bc4b}; ! Name of Object 1

