
OS:Version,
  {f48709a4-1871-4418-9fcb-d4eecbd8c4b0}, ! Handle
  0.9.3;                                  ! Version Identifier

OS:SizingPeriod:DesignDay,
  {122d6b75-fb6d-4fb1-bd87-c2c0e77a2252}, ! Handle
  ATLANTIC_CITY Ann Clg 2% Condns DB=>MWB, ! Name
  30.2,                                   ! Maximum Dry-Bulb Temperature {C}
  10.2,                                   ! Daily Dry-Bulb Temperature Range {deltaC}
  22.7,                                   ! Humidity Indicating Conditions at Maximum Dry-Bulb {BasedOnField A3}
  101085,                                 ! Barometric Pressure {Pa}
  5,                                      ! Wind Speed {m/s}
  230,                                    ! Wind Direction {deg}
  0,                                      ! Sky Clearness
  0,                                      ! Rain Indicator
  0,                                      ! Snow Indicator
  21,                                     ! Day of Month
  7,                                      ! Month
  SummerDesignDay,                        ! Day Type
  0,                                      ! Daylight Saving Time Indicator
  Wetbulb,                                ! Humidity Indicating Type
  ,                                       ! Humidity Indicating Day Schedule Name
  DefaultMultipliers,                     ! Dry-Bulb Temperature Range Modifier Type
  ,                                       ! Dry-Bulb Temperature Range Modifier Schedule Name
  ASHRAETau,                              ! Solar Model Indicator
  ,                                       ! Beam Solar Day Schedule Name
  ,                                       ! Diffuse Solar Day Schedule Name
  0.557,                                  ! ASHRAE Taub {dimensionless}
  1.774;                                  ! ASHRAE Taud {dimensionless}

OS:ComponentData,
  {b58147e4-d5fa-4bac-bd5d-2a9baf5d34bd}, ! Handle
  Component Data 1,                       ! Name
  {aea81fe1-962e-4e64-b64e-eb37a2774128}, ! UUID
  {eb73c10b-3d56-4dc4-ab6d-d4e3f986264c}, ! Version UUID
  1366309282,                             ! Creation Timestamp
  1366309282,                             ! Version Timestamp
  {122d6b75-fb6d-4fb1-bd87-c2c0e77a2252}; ! Name of Object 1

