
OS:Version,
  {b4b04658-833d-4f72-a248-2af058280f97}, ! Handle
  0.9.3;                                  ! Version Identifier

OS:SizingPeriod:DesignDay,
  {6f1fd6ed-7fb9-4fb0-84f2-6c1665c80e0d}, ! Handle
  Gallup Sen Clarke Fld Ann Clg 2% Condns Enth=>MDB, ! Name
  24.7,                                   ! Maximum Dry-Bulb Temperature {C}
  17.9,                                   ! Daily Dry-Bulb Temperature Range {deltaC}
  51200,                                  ! Humidity Indicating Conditions at Maximum Dry-Bulb {BasedOnField A3}
  79782,                                  ! Barometric Pressure {Pa}
  4.7,                                    ! Wind Speed {m/s}
  240,                                    ! Wind Direction {deg}
  0,                                      ! Sky Clearness
  0,                                      ! Rain Indicator
  0,                                      ! Snow Indicator
  21,                                     ! Day of Month
  7,                                      ! Month
  SummerDesignDay,                        ! Day Type
  0,                                      ! Daylight Saving Time Indicator
  Enthalpy,                               ! Humidity Indicating Type
  ,                                       ! Humidity Indicating Day Schedule Name
  DefaultMultipliers,                     ! Dry-Bulb Temperature Range Modifier Type
  ,                                       ! Dry-Bulb Temperature Range Modifier Schedule Name
  ASHRAETau,                              ! Solar Model Indicator
  ,                                       ! Beam Solar Day Schedule Name
  ,                                       ! Diffuse Solar Day Schedule Name
  0.383,                                  ! ASHRAE Taub {dimensionless}
  2.165;                                  ! ASHRAE Taud {dimensionless}

OS:ComponentData,
  {2a745efe-7cf8-4b51-a73b-769ec0ca2367}, ! Handle
  Component Data 1,                       ! Name
  {cc6621e9-011c-479c-ad5b-7f6e31611f87}, ! UUID
  {6e6bf116-206f-48eb-8f06-8e20348cc9ef}, ! Version UUID
  1366309410,                             ! Creation Timestamp
  1366309410,                             ! Version Timestamp
  {6f1fd6ed-7fb9-4fb0-84f2-6c1665c80e0d}; ! Name of Object 1

