
OS:Version,
  {97fe0125-37a3-4099-b2bd-4eb875176b9f}, ! Handle
  0.9.3;                                  ! Version Identifier

OS:SizingPeriod:DesignDay,
  {ac21452b-b53a-4c0f-add2-a0297a7e0b0e}, ! Handle
  BRISTOL Ann Clg 2% Condns DB=>MWB,      ! Name
  29.7,                                   ! Maximum Dry-Bulb Temperature {C}
  10.8,                                   ! Daily Dry-Bulb Temperature Range {deltaC}
  21.7,                                   ! Humidity Indicating Conditions at Maximum Dry-Bulb {BasedOnField A3}
  95931,                                  ! Barometric Pressure {Pa}
  3.2,                                    ! Wind Speed {m/s}
  250,                                    ! Wind Direction {deg}
  0,                                      ! Sky Clearness
  0,                                      ! Rain Indicator
  0,                                      ! Snow Indicator
  21,                                     ! Day of Month
  7,                                      ! Month
  SummerDesignDay,                        ! Day Type
  0,                                      ! Daylight Saving Time Indicator
  Wetbulb,                                ! Humidity Indicating Type
  ,                                       ! Humidity Indicating Day Schedule Name
  DefaultMultipliers,                     ! Dry-Bulb Temperature Range Modifier Type
  ,                                       ! Dry-Bulb Temperature Range Modifier Schedule Name
  ASHRAETau,                              ! Solar Model Indicator
  ,                                       ! Beam Solar Day Schedule Name
  ,                                       ! Diffuse Solar Day Schedule Name
  0.541,                                  ! ASHRAE Taub {dimensionless}
  1.782;                                  ! ASHRAE Taud {dimensionless}

OS:ComponentData,
  {812a465b-d614-4d58-9ef0-eb4a262f1a33}, ! Handle
  Component Data 1,                       ! Name
  {fd5b7531-1fd9-4420-8360-7f9dd3565b91}, ! UUID
  {cd77992f-dd95-4d38-b99e-ac7d9d89ca3e}, ! Version UUID
  1366310480,                             ! Creation Timestamp
  1366310480,                             ! Version Timestamp
  {ac21452b-b53a-4c0f-add2-a0297a7e0b0e}; ! Name of Object 1

