
OS:Version,
  {487dfc2a-5f08-41cf-ac4b-9e6237767f32}, ! Handle
  0.9.3;                                  ! Version Identifier

OS:SizingPeriod:DesignDay,
  {799ed05e-b182-4f0e-be9c-c0d699ee34a4}, ! Handle
  Honolulu Ann Clg .4% Condns DB=>MWB,    ! Name
  32.2,                                   ! Maximum Dry-Bulb Temperature {C}
  7.1,                                    ! Daily Dry-Bulb Temperature Range {deltaC}
  23.3,                                   ! Humidity Indicating Conditions at Maximum Dry-Bulb {BasedOnField A3}
  101265,                                 ! Barometric Pressure {Pa}
  6.7,                                    ! Wind Speed {m/s}
  60,                                     ! Wind Direction {deg}
  0,                                      ! Sky Clearness
  0,                                      ! Rain Indicator
  0,                                      ! Snow Indicator
  21,                                     ! Day of Month
  8,                                      ! Month
  SummerDesignDay,                        ! Day Type
  0,                                      ! Daylight Saving Time Indicator
  Wetbulb,                                ! Humidity Indicating Type
  ,                                       ! Humidity Indicating Day Schedule Name
  DefaultMultipliers,                     ! Dry-Bulb Temperature Range Modifier Type
  ,                                       ! Dry-Bulb Temperature Range Modifier Schedule Name
  ASHRAETau,                              ! Solar Model Indicator
  ,                                       ! Beam Solar Day Schedule Name
  ,                                       ! Diffuse Solar Day Schedule Name
  0.382,                                  ! ASHRAE Taub {dimensionless}
  2.521;                                  ! ASHRAE Taud {dimensionless}

OS:ComponentData,
  {1cd784d7-fb11-44e8-b984-09b82d8a49d6}, ! Handle
  Component Data 1,                       ! Name
  {b9b0beca-2824-4efa-9a33-b38ddf05925d}, ! UUID
  {6d2c4789-a94e-4321-9e02-c54a3da8f0d9}, ! Version UUID
  1366307090,                             ! Creation Timestamp
  1366307090,                             ! Version Timestamp
  {799ed05e-b182-4f0e-be9c-c0d699ee34a4}; ! Name of Object 1

