
OS:Version,
  {22ea0b26-8d98-4da6-b157-6e26705012e8}, ! Handle
  0.9.3;                                  ! Version Identifier

OS:SizingPeriod:DesignDay,
  {a1225f8f-b841-4439-a52f-2e581fe3dc75}, ! Handle
  EL_PASO Ann Clg 1% Condns Enth=>MDB,    ! Name
  29.2,                                   ! Maximum Dry-Bulb Temperature {C}
  13,                                     ! Daily Dry-Bulb Temperature Range {deltaC}
  65500,                                  ! Humidity Indicating Conditions at Maximum Dry-Bulb {BasedOnField A3}
  87780,                                  ! Barometric Pressure {Pa}
  3.9,                                    ! Wind Speed {m/s}
  280,                                    ! Wind Direction {deg}
  0,                                      ! Sky Clearness
  0,                                      ! Rain Indicator
  0,                                      ! Snow Indicator
  21,                                     ! Day of Month
  7,                                      ! Month
  SummerDesignDay,                        ! Day Type
  0,                                      ! Daylight Saving Time Indicator
  Enthalpy,                               ! Humidity Indicating Type
  ,                                       ! Humidity Indicating Day Schedule Name
  DefaultMultipliers,                     ! Dry-Bulb Temperature Range Modifier Type
  ,                                       ! Dry-Bulb Temperature Range Modifier Schedule Name
  ASHRAETau,                              ! Solar Model Indicator
  ,                                       ! Beam Solar Day Schedule Name
  ,                                       ! Diffuse Solar Day Schedule Name
  0.605,                                  ! ASHRAE Taub {dimensionless}
  1.547;                                  ! ASHRAE Taud {dimensionless}

