
OS:Version,
  {884a19ec-b691-4753-9d3e-26bda4736304}, ! Handle
  0.9.3;                                  ! Version Identifier

OS:SizingPeriod:DesignDay,
  {86a72b0a-abc2-4f96-986b-cd93967d6ac8}, ! Handle
  Corpus Christi Nas Ann Hum_n 99% Condns DP=>MCDB, ! Name
  8.6,                                    ! Maximum Dry-Bulb Temperature {C}
  0,                                      ! Daily Dry-Bulb Temperature Range {deltaC}
  -2.9,                                   ! Humidity Indicating Conditions at Maximum Dry-Bulb {BasedOnField A3}
  101253,                                 ! Barometric Pressure {Pa}
  6.4,                                    ! Wind Speed {m/s}
  350,                                    ! Wind Direction {deg}
  0,                                      ! Sky Clearness
  0,                                      ! Rain Indicator
  0,                                      ! Snow Indicator
  21,                                     ! Day of Month
  1,                                      ! Month
  WinterDesignDay,                        ! Day Type
  0,                                      ! Daylight Saving Time Indicator
  Dewpoint,                               ! Humidity Indicating Type
  ,                                       ! Humidity Indicating Day Schedule Name
  DefaultMultipliers,                     ! Dry-Bulb Temperature Range Modifier Type
  ,                                       ! Dry-Bulb Temperature Range Modifier Schedule Name
  ASHRAEClearSky;                         ! Solar Model Indicator

OS:ComponentData,
  {0f909cdc-2bb3-4837-a564-520f3b60b6de}, ! Handle
  Component Data 1,                       ! Name
  {7879d9b8-d9e3-4d8a-9d2d-42358b5d1a28}, ! UUID
  {31aed444-d2c0-48ec-8304-1747244983c3}, ! Version UUID
  1366310634,                             ! Creation Timestamp
  1366310634,                             ! Version Timestamp
  {86a72b0a-abc2-4f96-986b-cd93967d6ac8}; ! Name of Object 1

