
OS:Version,
  {a24e9314-c1ef-421a-84ae-3dd4a0ce298c}, ! Handle
  0.9.3;                                  ! Version Identifier

OS:SizingPeriod:DesignDay,
  {935fb050-ae31-40f5-a2cf-6f84550d2dc0}, ! Handle
  Clayton Ann Clg 1% Condns DP=>MDB,      ! Name
  21.2,                                   ! Maximum Dry-Bulb Temperature {C}
  14.7,                                   ! Daily Dry-Bulb Temperature Range {deltaC}
  16.4,                                   ! Humidity Indicating Conditions at Maximum Dry-Bulb {BasedOnField A3}
  84442,                                  ! Barometric Pressure {Pa}
  6.2,                                    ! Wind Speed {m/s}
  190,                                    ! Wind Direction {deg}
  0,                                      ! Sky Clearness
  0,                                      ! Rain Indicator
  0,                                      ! Snow Indicator
  21,                                     ! Day of Month
  7,                                      ! Month
  SummerDesignDay,                        ! Day Type
  0,                                      ! Daylight Saving Time Indicator
  Dewpoint,                               ! Humidity Indicating Type
  ,                                       ! Humidity Indicating Day Schedule Name
  DefaultMultipliers,                     ! Dry-Bulb Temperature Range Modifier Type
  ,                                       ! Dry-Bulb Temperature Range Modifier Schedule Name
  ASHRAETau,                              ! Solar Model Indicator
  ,                                       ! Beam Solar Day Schedule Name
  ,                                       ! Diffuse Solar Day Schedule Name
  0.399,                                  ! ASHRAE Taub {dimensionless}
  2.129;                                  ! ASHRAE Taud {dimensionless}

OS:ComponentData,
  {80599138-e006-4b0b-8b58-ee7260021d2b}, ! Handle
  Component Data 1,                       ! Name
  {9223d0e2-bc2b-468e-ac17-75f442967356}, ! UUID
  {7443c746-f14c-4fb0-8c97-67f39f59199f}, ! Version UUID
  1366309382,                             ! Creation Timestamp
  1366309382,                             ! Version Timestamp
  {935fb050-ae31-40f5-a2cf-6f84550d2dc0}; ! Name of Object 1

