
OS:Version,
  {9e2fbaf8-847c-4f72-bd26-65c09f7c2eba}, ! Handle
  0.9.3;                                  ! Version Identifier

OS:SizingPeriod:DesignDay,
  {f3584089-8420-45a1-8f0b-c9c4a7bfc310}, ! Handle
  Gulkana Intermediate Field Ann Clg 1% Condns DP=>MDB, ! Name
  15.8,                                   ! Maximum Dry-Bulb Temperature {C}
  11.7,                                   ! Daily Dry-Bulb Temperature Range {deltaC}
  10.2,                                   ! Humidity Indicating Conditions at Maximum Dry-Bulb {BasedOnField A3}
  95713,                                  ! Barometric Pressure {Pa}
  2.6,                                    ! Wind Speed {m/s}
  160,                                    ! Wind Direction {deg}
  0,                                      ! Sky Clearness
  0,                                      ! Rain Indicator
  0,                                      ! Snow Indicator
  21,                                     ! Day of Month
  7,                                      ! Month
  SummerDesignDay,                        ! Day Type
  0,                                      ! Daylight Saving Time Indicator
  Dewpoint,                               ! Humidity Indicating Type
  ,                                       ! Humidity Indicating Day Schedule Name
  DefaultMultipliers,                     ! Dry-Bulb Temperature Range Modifier Type
  ,                                       ! Dry-Bulb Temperature Range Modifier Schedule Name
  ASHRAETau,                              ! Solar Model Indicator
  ,                                       ! Beam Solar Day Schedule Name
  ,                                       ! Diffuse Solar Day Schedule Name
  0.385,                                  ! ASHRAE Taub {dimensionless}
  2.111;                                  ! ASHRAE Taud {dimensionless}

OS:ComponentData,
  {1c7cc2c5-5734-4389-a078-7fcf5862d13d}, ! Handle
  Component Data 1,                       ! Name
  {74584eee-79c3-4ec6-9b45-e62437077089}, ! UUID
  {3b9b86da-1864-4dc9-960b-2384bf85c225}, ! Version UUID
  1366305294,                             ! Creation Timestamp
  1366305294,                             ! Version Timestamp
  {f3584089-8420-45a1-8f0b-c9c4a7bfc310}; ! Name of Object 1

