
OS:Version,
  {c0178cd4-1b0c-4ccf-8f36-48a5ea50896b}, ! Handle
  0.9.3;                                  ! Version Identifier

OS:SizingPeriod:DesignDay,
  {d6ee5b78-57e7-4682-a2d0-6eada8392592}, ! Handle
  Dodge City Regional Ap Ann Clg .4% Condns WB=>MDB, ! Name
  31.9,                                   ! Maximum Dry-Bulb Temperature {C}
  13.9,                                   ! Daily Dry-Bulb Temperature Range {deltaC}
  23.5,                                   ! Humidity Indicating Conditions at Maximum Dry-Bulb {BasedOnField A3}
  92243,                                  ! Barometric Pressure {Pa}
  7.4,                                    ! Wind Speed {m/s}
  180,                                    ! Wind Direction {deg}
  0,                                      ! Sky Clearness
  0,                                      ! Rain Indicator
  0,                                      ! Snow Indicator
  21,                                     ! Day of Month
  7,                                      ! Month
  SummerDesignDay,                        ! Day Type
  0,                                      ! Daylight Saving Time Indicator
  Wetbulb,                                ! Humidity Indicating Type
  ,                                       ! Humidity Indicating Day Schedule Name
  DefaultMultipliers,                     ! Dry-Bulb Temperature Range Modifier Type
  ,                                       ! Dry-Bulb Temperature Range Modifier Schedule Name
  ASHRAETau,                              ! Solar Model Indicator
  ,                                       ! Beam Solar Day Schedule Name
  ,                                       ! Diffuse Solar Day Schedule Name
  0.419,                                  ! ASHRAE Taub {dimensionless}
  2.142;                                  ! ASHRAE Taud {dimensionless}

OS:ComponentData,
  {cb11732e-714f-4cf4-8974-1ae2f4939280}, ! Handle
  Component Data 1,                       ! Name
  {c0143b7e-e40d-48d6-986e-025e30d22c24}, ! UUID
  {03226811-871f-4a39-a892-e5270eb0ce78}, ! Version UUID
  1366307517,                             ! Creation Timestamp
  1366307517,                             ! Version Timestamp
  {d6ee5b78-57e7-4682-a2d0-6eada8392592}; ! Name of Object 1

