
OS:Version,
  {a5a8c4d3-0d78-4e2e-a5ec-407dc04384d9}, ! Handle
  0.9.3;                                  ! Version Identifier

OS:SizingPeriod:DesignDay,
  {dc426aab-c36d-4e39-97ce-8bdb02e78204}, ! Handle
  KALISPELL Ann Clg 2% Condns WB=>MDB,    ! Name
  26.2,                                   ! Maximum Dry-Bulb Temperature {C}
  17,                                     ! Daily Dry-Bulb Temperature Range {deltaC}
  16.6,                                   ! Humidity Indicating Conditions at Maximum Dry-Bulb {BasedOnField A3}
  90926,                                  ! Barometric Pressure {Pa}
  3.6,                                    ! Wind Speed {m/s}
  160,                                    ! Wind Direction {deg}
  0,                                      ! Sky Clearness
  0,                                      ! Rain Indicator
  0,                                      ! Snow Indicator
  21,                                     ! Day of Month
  7,                                      ! Month
  SummerDesignDay,                        ! Day Type
  0,                                      ! Daylight Saving Time Indicator
  Wetbulb,                                ! Humidity Indicating Type
  ,                                       ! Humidity Indicating Day Schedule Name
  DefaultMultipliers,                     ! Dry-Bulb Temperature Range Modifier Type
  ,                                       ! Dry-Bulb Temperature Range Modifier Schedule Name
  ASHRAETau,                              ! Solar Model Indicator
  ,                                       ! Beam Solar Day Schedule Name
  ,                                       ! Diffuse Solar Day Schedule Name
  0.355,                                  ! ASHRAE Taub {dimensionless}
  2.406;                                  ! ASHRAE Taud {dimensionless}

