
OS:Version,
  {06e1b520-c6bc-4b53-b0aa-2d74abfc3495}, ! Handle
  0.9.3;                                  ! Version Identifier

OS:SizingPeriod:DesignDay,
  {72daf806-21b5-424a-8944-fe609dbe1990}, ! Handle
  Cherry Point MCAS Ann Clg .4% Condns DP=>MDB, ! Name
  29.5,                                   ! Maximum Dry-Bulb Temperature {C}
  8.7,                                    ! Daily Dry-Bulb Temperature Range {deltaC}
  26,                                     ! Humidity Indicating Conditions at Maximum Dry-Bulb {BasedOnField A3}
  101193,                                 ! Barometric Pressure {Pa}
  3.4,                                    ! Wind Speed {m/s}
  210,                                    ! Wind Direction {deg}
  0,                                      ! Sky Clearness
  0,                                      ! Rain Indicator
  0,                                      ! Snow Indicator
  21,                                     ! Day of Month
  7,                                      ! Month
  SummerDesignDay,                        ! Day Type
  0,                                      ! Daylight Saving Time Indicator
  Dewpoint,                               ! Humidity Indicating Type
  ,                                       ! Humidity Indicating Day Schedule Name
  DefaultMultipliers,                     ! Dry-Bulb Temperature Range Modifier Type
  ,                                       ! Dry-Bulb Temperature Range Modifier Schedule Name
  ASHRAETau,                              ! Solar Model Indicator
  ,                                       ! Beam Solar Day Schedule Name
  ,                                       ! Diffuse Solar Day Schedule Name
  0.581,                                  ! ASHRAE Taub {dimensionless}
  1.748;                                  ! ASHRAE Taud {dimensionless}

OS:ComponentData,
  {d835f8c4-decf-4863-a219-d257f4f0b58f}, ! Handle
  Component Data 1,                       ! Name
  {d49b5e4f-57e7-4a1b-9176-ac54e24ff2da}, ! UUID
  {8a7bcfbb-6519-4992-bf73-f9d96578e7f6}, ! Version UUID
  1366308898,                             ! Creation Timestamp
  1366308898,                             ! Version Timestamp
  {72daf806-21b5-424a-8944-fe609dbe1990}; ! Name of Object 1

