
OS:Version,
  {725ec455-af13-4dcd-84c1-e99643d166c7}, ! Handle
  0.9.3;                                  ! Version Identifier

OS:SizingPeriod:DesignDay,
  {cd1b6df1-e594-451b-8c4c-0c5255239dab}, ! Handle
  Lubbock/Int'l Arpt Ann Htg Wind 99.6% Condns WS=>MCDB, ! Name
  9.5,                                    ! Maximum Dry-Bulb Temperature {C}
  0,                                      ! Daily Dry-Bulb Temperature Range {deltaC}
  9.5,                                    ! Humidity Indicating Conditions at Maximum Dry-Bulb {BasedOnField A3}
  90005,                                  ! Barometric Pressure {Pa}
  14.6,                                   ! Wind Speed {m/s}
  60,                                     ! Wind Direction {deg}
  0,                                      ! Sky Clearness
  0,                                      ! Rain Indicator
  0,                                      ! Snow Indicator
  21,                                     ! Day of Month
  12,                                     ! Month
  WinterDesignDay,                        ! Day Type
  0,                                      ! Daylight Saving Time Indicator
  Wetbulb,                                ! Humidity Indicating Type
  ,                                       ! Humidity Indicating Day Schedule Name
  DefaultMultipliers,                     ! Dry-Bulb Temperature Range Modifier Type
  ,                                       ! Dry-Bulb Temperature Range Modifier Schedule Name
  ASHRAEClearSky;                         ! Solar Model Indicator

OS:ComponentData,
  {10380427-9e86-4e0c-9b90-f3d4b357df56}, ! Handle
  Component Data 1,                       ! Name
  {21b835d5-8b80-4134-ac99-efc7290c1566}, ! UUID
  {09a681a8-45c4-412c-942c-be230fef78be}, ! Version UUID
  1366310794,                             ! Creation Timestamp
  1366310794,                             ! Version Timestamp
  {cd1b6df1-e594-451b-8c4c-0c5255239dab}; ! Name of Object 1

