
OS:Version,
  {5aee59d1-9179-410d-920f-8d5ca978fc48}, ! Handle
  0.9.3;                                  ! Version Identifier

OS:SizingPeriod:DesignDay,
  {2bd4892a-83bc-41fd-8b60-9e137dfde2d7}, ! Handle
  Chicago Midway Ap Ann Clg .4% Condns WB=>MDB, ! Name
  31.3,                                   ! Maximum Dry-Bulb Temperature {C}
  8.8,                                    ! Daily Dry-Bulb Temperature Range {deltaC}
  25.6,                                   ! Humidity Indicating Conditions at Maximum Dry-Bulb {BasedOnField A3}
  99110,                                  ! Barometric Pressure {Pa}
  5.6,                                    ! Wind Speed {m/s}
  220,                                    ! Wind Direction {deg}
  0,                                      ! Sky Clearness
  0,                                      ! Rain Indicator
  0,                                      ! Snow Indicator
  21,                                     ! Day of Month
  7,                                      ! Month
  SummerDesignDay,                        ! Day Type
  0,                                      ! Daylight Saving Time Indicator
  Wetbulb,                                ! Humidity Indicating Type
  ,                                       ! Humidity Indicating Day Schedule Name
  DefaultMultipliers,                     ! Dry-Bulb Temperature Range Modifier Type
  ,                                       ! Dry-Bulb Temperature Range Modifier Schedule Name
  ASHRAETau,                              ! Solar Model Indicator
  ,                                       ! Beam Solar Day Schedule Name
  ,                                       ! Diffuse Solar Day Schedule Name
  0.457,                                  ! ASHRAE Taub {dimensionless}
  2.043;                                  ! ASHRAE Taud {dimensionless}

OS:ComponentData,
  {35e2b8d4-466f-4ebb-8d58-b13dd7c79924}, ! Handle
  Component Data 1,                       ! Name
  {00702257-c06a-48d7-aa81-3555e9d37e1f}, ! UUID
  {be022fec-186a-4278-89f9-ac5c19e3693b}, ! Version UUID
  1366307343,                             ! Creation Timestamp
  1366307343,                             ! Version Timestamp
  {2bd4892a-83bc-41fd-8b60-9e137dfde2d7}; ! Name of Object 1

