
OS:Version,
  {ba29add2-bbce-4585-b33b-d5ff5ee6ad0c}, ! Handle
  0.9.3;                                  ! Version Identifier

OS:SizingPeriod:DesignDay,
  {c02ae77f-5ea1-4f24-9bbf-4eb88551e38e}, ! Handle
  Burley Municipal Arpt Ann Clg 1% Condns WB=>MDB, ! Name
  29.5,                                   ! Maximum Dry-Bulb Temperature {C}
  16.9,                                   ! Daily Dry-Bulb Temperature Range {deltaC}
  18.4,                                   ! Humidity Indicating Conditions at Maximum Dry-Bulb {BasedOnField A3}
  87002,                                  ! Barometric Pressure {Pa}
  3,                                      ! Wind Speed {m/s}
  270,                                    ! Wind Direction {deg}
  0,                                      ! Sky Clearness
  0,                                      ! Rain Indicator
  0,                                      ! Snow Indicator
  21,                                     ! Day of Month
  7,                                      ! Month
  SummerDesignDay,                        ! Day Type
  0,                                      ! Daylight Saving Time Indicator
  Wetbulb,                                ! Humidity Indicating Type
  ,                                       ! Humidity Indicating Day Schedule Name
  DefaultMultipliers,                     ! Dry-Bulb Temperature Range Modifier Type
  ,                                       ! Dry-Bulb Temperature Range Modifier Schedule Name
  ASHRAETau,                              ! Solar Model Indicator
  ,                                       ! Beam Solar Day Schedule Name
  ,                                       ! Diffuse Solar Day Schedule Name
  0.429,                                  ! ASHRAE Taub {dimensionless}
  1.956;                                  ! ASHRAE Taud {dimensionless}

OS:ComponentData,
  {a848ee38-d1b3-411b-bd23-8c8a27e3eefb}, ! Handle
  Component Data 1,                       ! Name
  {4428a0e3-98f0-4aff-a200-0b952802f870}, ! UUID
  {bb7f9db9-fd69-43f1-a54e-30793ba56e15}, ! Version UUID
  1366307274,                             ! Creation Timestamp
  1366307274,                             ! Version Timestamp
  {c02ae77f-5ea1-4f24-9bbf-4eb88551e38e}; ! Name of Object 1

