
OS:Version,
  {bafee332-ce0f-4aa5-9cc3-30feb692afac}, ! Handle
  0.9.3;                                  ! Version Identifier

OS:SizingPeriod:DesignDay,
  {2c83518e-af21-42e9-9ad9-8927a3fe6ad5}, ! Handle
  Dallas Fort Worth Intl Ap Ann Clg 1% Condns DP=>MDB, ! Name
  28.2,                                   ! Maximum Dry-Bulb Temperature {C}
  11,                                     ! Daily Dry-Bulb Temperature Range {deltaC}
  23.5,                                   ! Humidity Indicating Conditions at Maximum Dry-Bulb {BasedOnField A3}
  99288,                                  ! Barometric Pressure {Pa}
  4.6,                                    ! Wind Speed {m/s}
  180,                                    ! Wind Direction {deg}
  0,                                      ! Sky Clearness
  0,                                      ! Rain Indicator
  0,                                      ! Snow Indicator
  21,                                     ! Day of Month
  8,                                      ! Month
  SummerDesignDay,                        ! Day Type
  0,                                      ! Daylight Saving Time Indicator
  Dewpoint,                               ! Humidity Indicating Type
  ,                                       ! Humidity Indicating Day Schedule Name
  DefaultMultipliers,                     ! Dry-Bulb Temperature Range Modifier Type
  ,                                       ! Dry-Bulb Temperature Range Modifier Schedule Name
  ASHRAETau,                              ! Solar Model Indicator
  ,                                       ! Beam Solar Day Schedule Name
  ,                                       ! Diffuse Solar Day Schedule Name
  0.472,                                  ! ASHRAE Taub {dimensionless}
  2.037;                                  ! ASHRAE Taud {dimensionless}

OS:ComponentData,
  {46fbb1a3-b0d7-4506-aa52-edf84bbffb2b}, ! Handle
  Component Data 1,                       ! Name
  {259cc7f1-ea28-41b6-b9e1-8c2b8147b84d}, ! UUID
  {1f854a38-7577-4b99-b350-5fda2bd1d48b}, ! Version UUID
  1366310656,                             ! Creation Timestamp
  1366310656,                             ! Version Timestamp
  {2c83518e-af21-42e9-9ad9-8927a3fe6ad5}; ! Name of Object 1

