
OS:Version,
  {5532b53c-0672-4959-898f-c842e14e35b7}, ! Handle
  0.9.3;                                  ! Version Identifier

OS:SizingPeriod:DesignDay,
  {20e16f68-590a-452a-80d3-19515374f67b}, ! Handle
  Fort Drum Wheeler S Ann Htg 99.6% Condns DB, ! Name
  -24.2,                                  ! Maximum Dry-Bulb Temperature {C}
  0,                                      ! Daily Dry-Bulb Temperature Range {deltaC}
  -24.2,                                  ! Humidity Indicating Conditions at Maximum Dry-Bulb {BasedOnField A3}
  98816,                                  ! Barometric Pressure {Pa}
  3.1,                                    ! Wind Speed {m/s}
  130,                                    ! Wind Direction {deg}
  0,                                      ! Sky Clearness
  0,                                      ! Rain Indicator
  0,                                      ! Snow Indicator
  21,                                     ! Day of Month
  1,                                      ! Month
  WinterDesignDay,                        ! Day Type
  0,                                      ! Daylight Saving Time Indicator
  Wetbulb,                                ! Humidity Indicating Type
  ,                                       ! Humidity Indicating Day Schedule Name
  DefaultMultipliers,                     ! Dry-Bulb Temperature Range Modifier Type
  ,                                       ! Dry-Bulb Temperature Range Modifier Schedule Name
  ASHRAEClearSky;                         ! Solar Model Indicator

OS:ComponentData,
  {a9a6367d-2d0a-40fa-ba54-0c0f1c65e11a}, ! Handle
  Component Data 1,                       ! Name
  {149825a4-8832-4013-b7f4-0e09b41b2f21}, ! UUID
  {cf7ebdd5-7508-4d12-8e25-8bbf6dd7bf3f}, ! Version UUID
  1366309620,                             ! Creation Timestamp
  1366309620,                             ! Version Timestamp
  {20e16f68-590a-452a-80d3-19515374f67b}; ! Name of Object 1

