
OS:Version,
  {2c1578c3-016c-4bbe-bfff-52c69017dfcb}, ! Handle
  0.9.3;                                  ! Version Identifier

OS:SizingPeriod:DesignDay,
  {9fca796d-8149-4a0a-ba83-a8d5af71fdef}, ! Handle
  GULKANA Ann Htg Wind 99.6% Condns WS=>MCDB, ! Name
  -1.3,                                   ! Maximum Dry-Bulb Temperature {C}
  0,                                      ! Daily Dry-Bulb Temperature Range {deltaC}
  -1.3,                                   ! Humidity Indicating Conditions at Maximum Dry-Bulb {BasedOnField A3}
  95679,                                  ! Barometric Pressure {Pa}
  11.4,                                   ! Wind Speed {m/s}
  330,                                    ! Wind Direction {deg}
  0,                                      ! Sky Clearness
  0,                                      ! Rain Indicator
  0,                                      ! Snow Indicator
  21,                                     ! Day of Month
  1,                                      ! Month
  WinterDesignDay,                        ! Day Type
  0,                                      ! Daylight Saving Time Indicator
  Wetbulb,                                ! Humidity Indicating Type
  ,                                       ! Humidity Indicating Day Schedule Name
  DefaultMultipliers,                     ! Dry-Bulb Temperature Range Modifier Type
  ,                                       ! Dry-Bulb Temperature Range Modifier Schedule Name
  ASHRAEClearSky;                         ! Solar Model Indicator

OS:ComponentData,
  {b742ff39-f938-4f21-98de-7323bca61164}, ! Handle
  Component Data 1,                       ! Name
  {29730608-f4ad-4761-bff2-bec6303d482b}, ! UUID
  {f0072462-253e-4f9d-a6ba-26f3eef586f5}, ! Version UUID
  1366305285,                             ! Creation Timestamp
  1366305285,                             ! Version Timestamp
  {9fca796d-8149-4a0a-ba83-a8d5af71fdef}; ! Name of Object 1

