
OS:Version,
  {4cb4f934-03eb-4158-a1e6-fdfaeb649edf}, ! Handle
  0.9.3;                                  ! Version Identifier

OS:SizingPeriod:DesignDay,
  {8a6fa149-f631-4fc5-a4ba-ab7fa11bed8b}, ! Handle
  Grand Island Ann Clg 1% Condns WB=>MDB, ! Name
  31,                                     ! Maximum Dry-Bulb Temperature {C}
  12.2,                                   ! Daily Dry-Bulb Temperature Range {deltaC}
  24.2,                                   ! Humidity Indicating Conditions at Maximum Dry-Bulb {BasedOnField A3}
  94708,                                  ! Barometric Pressure {Pa}
  6.5,                                    ! Wind Speed {m/s}
  180,                                    ! Wind Direction {deg}
  0,                                      ! Sky Clearness
  0,                                      ! Rain Indicator
  0,                                      ! Snow Indicator
  21,                                     ! Day of Month
  7,                                      ! Month
  SummerDesignDay,                        ! Day Type
  0,                                      ! Daylight Saving Time Indicator
  Wetbulb,                                ! Humidity Indicating Type
  ,                                       ! Humidity Indicating Day Schedule Name
  DefaultMultipliers,                     ! Dry-Bulb Temperature Range Modifier Type
  ,                                       ! Dry-Bulb Temperature Range Modifier Schedule Name
  ASHRAETau,                              ! Solar Model Indicator
  ,                                       ! Beam Solar Day Schedule Name
  ,                                       ! Diffuse Solar Day Schedule Name
  0.405,                                  ! ASHRAE Taub {dimensionless}
  2.23;                                   ! ASHRAE Taud {dimensionless}

OS:ComponentData,
  {d84e5bf5-b3af-46a6-b531-5c4e9e08ca78}, ! Handle
  Component Data 1,                       ! Name
  {b19c8288-3754-4eac-85e5-a30588c5449d}, ! UUID
  {753864f9-cabf-4847-8382-fdc82f909b7e}, ! Version UUID
  1366309108,                             ! Creation Timestamp
  1366309108,                             ! Version Timestamp
  {8a6fa149-f631-4fc5-a4ba-ab7fa11bed8b}; ! Name of Object 1

