
OS:Version,
  {150ef9df-a2cc-4cd6-8d96-b02fa9c464c0}, ! Handle
  0.9.3;                                  ! Version Identifier

OS:SizingPeriod:DesignDay,
  {fa2ac09f-a9a8-45b6-b081-36fe5a1eaae0}, ! Handle
  Flippin  Awos Ann Clg 1% Condns Enth=>MDB, ! Name
  32,                                     ! Maximum Dry-Bulb Temperature {C}
  12,                                     ! Daily Dry-Bulb Temperature Range {deltaC}
  76300,                                  ! Humidity Indicating Conditions at Maximum Dry-Bulb {BasedOnField A3}
  97190,                                  ! Barometric Pressure {Pa}
  2.6,                                    ! Wind Speed {m/s}
  210,                                    ! Wind Direction {deg}
  0,                                      ! Sky Clearness
  0,                                      ! Rain Indicator
  0,                                      ! Snow Indicator
  21,                                     ! Day of Month
  7,                                      ! Month
  SummerDesignDay,                        ! Day Type
  0,                                      ! Daylight Saving Time Indicator
  Enthalpy,                               ! Humidity Indicating Type
  ,                                       ! Humidity Indicating Day Schedule Name
  DefaultMultipliers,                     ! Dry-Bulb Temperature Range Modifier Type
  ,                                       ! Dry-Bulb Temperature Range Modifier Schedule Name
  ASHRAETau,                              ! Solar Model Indicator
  ,                                       ! Beam Solar Day Schedule Name
  ,                                       ! Diffuse Solar Day Schedule Name
  0.465,                                  ! ASHRAE Taub {dimensionless}
  2.04;                                   ! ASHRAE Taud {dimensionless}

OS:ComponentData,
  {893a6894-27c2-49d2-862e-ce35e895ae58}, ! Handle
  Component Data 1,                       ! Name
  {09fbf46c-0e0f-4184-b37f-b50e1a192405}, ! UUID
  {409ea771-fbf6-401c-819b-77a6482b74b1}, ! Version UUID
  1366306203,                             ! Creation Timestamp
  1366306203,                             ! Version Timestamp
  {fa2ac09f-a9a8-45b6-b081-36fe5a1eaae0}; ! Name of Object 1

