
OS:Version,
  {69d625af-3f2f-471f-9052-de37a306ba83}, ! Handle
  0.9.3;                                  ! Version Identifier

OS:SizingPeriod:DesignDay,
  {1cf78bb7-ebed-4c8b-8212-2a97c3ad5f46}, ! Handle
  Ely Ann Clg .4% Condns WB=>MDB,         ! Name
  26.7,                                   ! Maximum Dry-Bulb Temperature {C}
  20.3,                                   ! Daily Dry-Bulb Temperature Range {deltaC}
  15.9,                                   ! Humidity Indicating Conditions at Maximum Dry-Bulb {BasedOnField A3}
  80397,                                  ! Barometric Pressure {Pa}
  5.3,                                    ! Wind Speed {m/s}
  220,                                    ! Wind Direction {deg}
  0,                                      ! Sky Clearness
  0,                                      ! Rain Indicator
  0,                                      ! Snow Indicator
  21,                                     ! Day of Month
  7,                                      ! Month
  SummerDesignDay,                        ! Day Type
  0,                                      ! Daylight Saving Time Indicator
  Wetbulb,                                ! Humidity Indicating Type
  ,                                       ! Humidity Indicating Day Schedule Name
  DefaultMultipliers,                     ! Dry-Bulb Temperature Range Modifier Type
  ,                                       ! Dry-Bulb Temperature Range Modifier Schedule Name
  ASHRAETau,                              ! Solar Model Indicator
  ,                                       ! Beam Solar Day Schedule Name
  ,                                       ! Diffuse Solar Day Schedule Name
  0.442,                                  ! ASHRAE Taub {dimensionless}
  1.871;                                  ! ASHRAE Taud {dimensionless}

OS:ComponentData,
  {fabf3200-a5ca-4ca0-8e66-4d0f74694e6e}, ! Handle
  Component Data 1,                       ! Name
  {7ff63cb0-7435-4880-bde0-ea008c6af8b8}, ! UUID
  {86462bfb-2c27-4289-81e7-5f95370854fe}, ! Version UUID
  1366309472,                             ! Creation Timestamp
  1366309472,                             ! Version Timestamp
  {1cf78bb7-ebed-4c8b-8212-2a97c3ad5f46}; ! Name of Object 1

