
OS:Version,
  {4e0d5e51-3370-4170-8304-e15969adec1b}, ! Handle
  0.9.3;                                  ! Version Identifier

OS:SizingPeriod:DesignDay,
  {4f5429ec-131a-4237-9fdb-a481ddf7f772}, ! Handle
  Felts Fld Ann Clg 1% Condns Enth=>MDB,  ! Name
  30.4,                                   ! Maximum Dry-Bulb Temperature {C}
  15.9,                                   ! Daily Dry-Bulb Temperature Range {deltaC}
  56000,                                  ! Humidity Indicating Conditions at Maximum Dry-Bulb {BasedOnField A3}
  94208,                                  ! Barometric Pressure {Pa}
  3.5,                                    ! Wind Speed {m/s}
  220,                                    ! Wind Direction {deg}
  0,                                      ! Sky Clearness
  0,                                      ! Rain Indicator
  0,                                      ! Snow Indicator
  21,                                     ! Day of Month
  7,                                      ! Month
  SummerDesignDay,                        ! Day Type
  0,                                      ! Daylight Saving Time Indicator
  Enthalpy,                               ! Humidity Indicating Type
  ,                                       ! Humidity Indicating Day Schedule Name
  DefaultMultipliers,                     ! Dry-Bulb Temperature Range Modifier Type
  ,                                       ! Dry-Bulb Temperature Range Modifier Schedule Name
  ASHRAETau,                              ! Solar Model Indicator
  ,                                       ! Beam Solar Day Schedule Name
  ,                                       ! Diffuse Solar Day Schedule Name
  0.356,                                  ! ASHRAE Taub {dimensionless}
  2.398;                                  ! ASHRAE Taud {dimensionless}

OS:ComponentData,
  {a67cccee-5d8c-44d1-b648-b427a170e383}, ! Handle
  Component Data 1,                       ! Name
  {ff8c60b7-5240-4cc9-ae9d-5705dd0deac0}, ! UUID
  {9d73b9b9-3bae-4b0f-93bb-c850b41675a6}, ! Version UUID
  1366311377,                             ! Creation Timestamp
  1366311377,                             ! Version Timestamp
  {4f5429ec-131a-4237-9fdb-a481ddf7f772}; ! Name of Object 1

