
OS:Version,
  {da86a2a1-4c85-4a87-ae65-517c4d956957}, ! Handle
  0.9.3;                                  ! Version Identifier

OS:SizingPeriod:DesignDay,
  {4398c52a-606c-4239-9782-49f9353a33d8}, ! Handle
  Chippewa Co Intl Ann Clg 1% Condns DB=>MWB, ! Name
  27,                                     ! Maximum Dry-Bulb Temperature {C}
  10.6,                                   ! Daily Dry-Bulb Temperature Range {deltaC}
  19.6,                                   ! Humidity Indicating Conditions at Maximum Dry-Bulb {BasedOnField A3}
  98358,                                  ! Barometric Pressure {Pa}
  4.1,                                    ! Wind Speed {m/s}
  240,                                    ! Wind Direction {deg}
  0,                                      ! Sky Clearness
  0,                                      ! Rain Indicator
  0,                                      ! Snow Indicator
  21,                                     ! Day of Month
  7,                                      ! Month
  SummerDesignDay,                        ! Day Type
  0,                                      ! Daylight Saving Time Indicator
  Wetbulb,                                ! Humidity Indicating Type
  ,                                       ! Humidity Indicating Day Schedule Name
  DefaultMultipliers,                     ! Dry-Bulb Temperature Range Modifier Type
  ,                                       ! Dry-Bulb Temperature Range Modifier Schedule Name
  ASHRAETau,                              ! Solar Model Indicator
  ,                                       ! Beam Solar Day Schedule Name
  ,                                       ! Diffuse Solar Day Schedule Name
  0.41,                                   ! ASHRAE Taub {dimensionless}
  2.2;                                    ! ASHRAE Taud {dimensionless}

OS:ComponentData,
  {e21b22a1-4d7f-437a-b886-e859e06d2d93}, ! Handle
  Component Data 1,                       ! Name
  {64557d9c-7799-4eba-8755-1bee0c02966d}, ! UUID
  {1badbd11-6b37-4718-95ea-9c297b064f94}, ! Version UUID
  1366307968,                             ! Creation Timestamp
  1366307968,                             ! Version Timestamp
  {4398c52a-606c-4239-9782-49f9353a33d8}; ! Name of Object 1

