
OS:Version,
  {4bee1fe5-35a0-4c00-a232-2c6a6737f455}, ! Handle
  0.9.3;                                  ! Version Identifier

OS:SizingPeriod:DesignDay,
  {93c8f0f0-4170-4f4f-9e70-67e047bfcfc3}, ! Handle
  Lewiston Ann Clg .4% Condns WB=>MDB,    ! Name
  33.4,                                   ! Maximum Dry-Bulb Temperature {C}
  15,                                     ! Daily Dry-Bulb Temperature Range {deltaC}
  19.8,                                   ! Humidity Indicating Conditions at Maximum Dry-Bulb {BasedOnField A3}
  96184,                                  ! Barometric Pressure {Pa}
  3,                                      ! Wind Speed {m/s}
  320,                                    ! Wind Direction {deg}
  0,                                      ! Sky Clearness
  0,                                      ! Rain Indicator
  0,                                      ! Snow Indicator
  21,                                     ! Day of Month
  7,                                      ! Month
  SummerDesignDay,                        ! Day Type
  0,                                      ! Daylight Saving Time Indicator
  Wetbulb,                                ! Humidity Indicating Type
  ,                                       ! Humidity Indicating Day Schedule Name
  DefaultMultipliers,                     ! Dry-Bulb Temperature Range Modifier Type
  ,                                       ! Dry-Bulb Temperature Range Modifier Schedule Name
  ASHRAETau,                              ! Solar Model Indicator
  ,                                       ! Beam Solar Day Schedule Name
  ,                                       ! Diffuse Solar Day Schedule Name
  0.393,                                  ! ASHRAE Taub {dimensionless}
  2.242;                                  ! ASHRAE Taud {dimensionless}

OS:ComponentData,
  {87550dfb-0e6a-4730-96bc-614e49b0351b}, ! Handle
  Component Data 1,                       ! Name
  {b581f144-fc67-45c2-899f-0e5d7672964f}, ! UUID
  {0b63bc04-1e8c-4ef1-bc27-b57a3a070af0}, ! Version UUID
  1366307288,                             ! Creation Timestamp
  1366307288,                             ! Version Timestamp
  {93c8f0f0-4170-4f4f-9e70-67e047bfcfc3}; ! Name of Object 1

