
OS:Version,
  {2d9bfdb0-bd40-4cba-ae88-55a77a4e8ca2}, ! Handle
  0.9.3;                                  ! Version Identifier

OS:SizingPeriod:DesignDay,
  {00297e33-525e-4e4e-9f71-2c2c6e3d6f08}, ! Handle
  HOUSTON Ann Htg Wind 99% Condns WS=>MCDB, ! Name
  14.1,                                   ! Maximum Dry-Bulb Temperature {C}
  0,                                      ! Daily Dry-Bulb Temperature Range {deltaC}
  14.1,                                   ! Humidity Indicating Conditions at Maximum Dry-Bulb {BasedOnField A3}
  100929,                                 ! Barometric Pressure {Pa}
  8.9,                                    ! Wind Speed {m/s}
  0,                                      ! Wind Direction {deg}
  0,                                      ! Sky Clearness
  0,                                      ! Rain Indicator
  0,                                      ! Snow Indicator
  21,                                     ! Day of Month
  1,                                      ! Month
  WinterDesignDay,                        ! Day Type
  0,                                      ! Daylight Saving Time Indicator
  Wetbulb,                                ! Humidity Indicating Type
  ,                                       ! Humidity Indicating Day Schedule Name
  DefaultMultipliers,                     ! Dry-Bulb Temperature Range Modifier Type
  ,                                       ! Dry-Bulb Temperature Range Modifier Schedule Name
  ASHRAEClearSky;                         ! Solar Model Indicator

OS:ComponentData,
  {de0e2c2c-48e3-46d3-834c-13c30a929b48}, ! Handle
  Component Data 1,                       ! Name
  {4fd9ef5b-f8e5-4602-bde8-2377da0ea710}, ! UUID
  {1ade2eb4-4e43-47b1-b7b1-5cb23d3a9052}, ! Version UUID
  1366310754,                             ! Creation Timestamp
  1366310754,                             ! Version Timestamp
  {00297e33-525e-4e4e-9f71-2c2c6e3d6f08}; ! Name of Object 1

