
OS:Version,
  {8ff60ad6-6829-4e12-a7e4-03fd1c96b8b7}, ! Handle
  0.9.3;                                  ! Version Identifier

OS:SizingPeriod:DesignDay,
  {eaebb860-8749-4ada-a2ac-e36efe48fec9}, ! Handle
  Knoxville Mcghee Tyson Ap Ann Hum_n 99.6% Condns DP=>MCDB, ! Name
  -6.5,                                   ! Maximum Dry-Bulb Temperature {C}
  0,                                      ! Daily Dry-Bulb Temperature Range {deltaC}
  -16,                                    ! Humidity Indicating Conditions at Maximum Dry-Bulb {BasedOnField A3}
  97854,                                  ! Barometric Pressure {Pa}
  2.8,                                    ! Wind Speed {m/s}
  20,                                     ! Wind Direction {deg}
  0,                                      ! Sky Clearness
  0,                                      ! Rain Indicator
  0,                                      ! Snow Indicator
  21,                                     ! Day of Month
  1,                                      ! Month
  WinterDesignDay,                        ! Day Type
  0,                                      ! Daylight Saving Time Indicator
  Dewpoint,                               ! Humidity Indicating Type
  ,                                       ! Humidity Indicating Day Schedule Name
  DefaultMultipliers,                     ! Dry-Bulb Temperature Range Modifier Type
  ,                                       ! Dry-Bulb Temperature Range Modifier Schedule Name
  ASHRAEClearSky;                         ! Solar Model Indicator

OS:ComponentData,
  {35b423e0-f6d4-462d-92fc-cd59ceedee52}, ! Handle
  Component Data 1,                       ! Name
  {f3a8ad7d-8854-4794-8e36-51e6598207bd}, ! UUID
  {9cdcb890-a498-41f1-9bd1-c536c3dfdb6a}, ! Version UUID
  1366310512,                             ! Creation Timestamp
  1366310512,                             ! Version Timestamp
  {eaebb860-8749-4ada-a2ac-e36efe48fec9}; ! Name of Object 1

