
OS:Version,
  {68e972b4-f73d-45b3-813d-b9efd821ba05}, ! Handle
  0.9.3;                                  ! Version Identifier

OS:SizingPeriod:DesignDay,
  {1d744852-c8f0-411b-862f-534a599df32f}, ! Handle
  Juneau Ann Hum_n 99% Condns DP=>MCDB,   ! Name
  -11.1,                                  ! Maximum Dry-Bulb Temperature {C}
  0,                                      ! Daily Dry-Bulb Temperature Range {deltaC}
  -21.4,                                  ! Humidity Indicating Conditions at Maximum Dry-Bulb {BasedOnField A3}
  101289,                                 ! Barometric Pressure {Pa}
  2,                                      ! Wind Speed {m/s}
  0,                                      ! Wind Direction {deg}
  0,                                      ! Sky Clearness
  0,                                      ! Rain Indicator
  0,                                      ! Snow Indicator
  21,                                     ! Day of Month
  1,                                      ! Month
  WinterDesignDay,                        ! Day Type
  0,                                      ! Daylight Saving Time Indicator
  Dewpoint,                               ! Humidity Indicating Type
  ,                                       ! Humidity Indicating Day Schedule Name
  DefaultMultipliers,                     ! Dry-Bulb Temperature Range Modifier Type
  ,                                       ! Dry-Bulb Temperature Range Modifier Schedule Name
  ASHRAEClearSky;                         ! Solar Model Indicator

OS:ComponentData,
  {87096fb3-7e8d-4362-b9ea-dbbaa12fb010}, ! Handle
  Component Data 1,                       ! Name
  {940e0f5f-3630-4e36-beed-fe1f546cbf7f}, ! UUID
  {5d784ec9-8d1e-427b-b50a-1671b31399dd}, ! Version UUID
  1366305332,                             ! Creation Timestamp
  1366305332,                             ! Version Timestamp
  {1d744852-c8f0-411b-862f-534a599df32f}; ! Name of Object 1

