
OS:Version,
  {09f5ee29-f4d8-4543-a385-1d158bf0b0a2}, ! Handle
  0.9.3;                                  ! Version Identifier

OS:SizingPeriod:DesignDay,
  {1b377bde-011d-4313-b83f-21faace874be}, ! Handle
  Big Delta Allen Aaf Ann Clg 2% Condns WB=>MDB, ! Name
  20.4,                                   ! Maximum Dry-Bulb Temperature {C}
  9.5,                                    ! Daily Dry-Bulb Temperature Range {deltaC}
  13.9,                                   ! Humidity Indicating Conditions at Maximum Dry-Bulb {BasedOnField A3}
  96773,                                  ! Barometric Pressure {Pa}
  3.3,                                    ! Wind Speed {m/s}
  310,                                    ! Wind Direction {deg}
  0,                                      ! Sky Clearness
  0,                                      ! Rain Indicator
  0,                                      ! Snow Indicator
  21,                                     ! Day of Month
  7,                                      ! Month
  SummerDesignDay,                        ! Day Type
  0,                                      ! Daylight Saving Time Indicator
  Wetbulb,                                ! Humidity Indicating Type
  ,                                       ! Humidity Indicating Day Schedule Name
  DefaultMultipliers,                     ! Dry-Bulb Temperature Range Modifier Type
  ,                                       ! Dry-Bulb Temperature Range Modifier Schedule Name
  ASHRAETau,                              ! Solar Model Indicator
  ,                                       ! Beam Solar Day Schedule Name
  ,                                       ! Diffuse Solar Day Schedule Name
  0.398,                                  ! ASHRAE Taub {dimensionless}
  2.083;                                  ! ASHRAE Taud {dimensionless}

OS:ComponentData,
  {90a6ea40-c3ea-4246-b78c-7baafdaaba3c}, ! Handle
  Component Data 1,                       ! Name
  {afa1e52c-49eb-4400-8dea-3c2288ae0be5}, ! UUID
  {8ef4abaf-8a66-4c92-8e02-dfabbe3448c0}, ! Version UUID
  1366304779,                             ! Creation Timestamp
  1366304779,                             ! Version Timestamp
  {1b377bde-011d-4313-b83f-21faace874be}; ! Name of Object 1

