
OS:Version,
  {e73082c3-3b42-4587-9c34-10406ecaa423}, ! Handle
  0.9.3;                                  ! Version Identifier

OS:SizingPeriod:DesignDay,
  {aeb93dc8-d086-4803-8274-cec51341846d}, ! Handle
  Alpena County Regional Ap Ann Clg .4% Condns WB=>MDB, ! Name
  28.9,                                   ! Maximum Dry-Bulb Temperature {C}
  12.7,                                   ! Daily Dry-Bulb Temperature Range {deltaC}
  23.6,                                   ! Humidity Indicating Conditions at Maximum Dry-Bulb {BasedOnField A3}
  98828,                                  ! Barometric Pressure {Pa}
  4.8,                                    ! Wind Speed {m/s}
  230,                                    ! Wind Direction {deg}
  0,                                      ! Sky Clearness
  0,                                      ! Rain Indicator
  0,                                      ! Snow Indicator
  21,                                     ! Day of Month
  7,                                      ! Month
  SummerDesignDay,                        ! Day Type
  0,                                      ! Daylight Saving Time Indicator
  Wetbulb,                                ! Humidity Indicating Type
  ,                                       ! Humidity Indicating Day Schedule Name
  DefaultMultipliers,                     ! Dry-Bulb Temperature Range Modifier Type
  ,                                       ! Dry-Bulb Temperature Range Modifier Schedule Name
  ASHRAETau,                              ! Solar Model Indicator
  ,                                       ! Beam Solar Day Schedule Name
  ,                                       ! Diffuse Solar Day Schedule Name
  0.42,                                   ! ASHRAE Taub {dimensionless}
  2.176;                                  ! ASHRAE Taud {dimensionless}

OS:ComponentData,
  {8978e593-02b9-4955-8d1d-0b89757b64c7}, ! Handle
  Component Data 1,                       ! Name
  {1437b8f6-52a1-46f8-87c2-64f333070962}, ! UUID
  {5e9e8c77-4071-4915-b974-54064ba2a148}, ! Version UUID
  1366307948,                             ! Creation Timestamp
  1366307948,                             ! Version Timestamp
  {aeb93dc8-d086-4803-8274-cec51341846d}; ! Name of Object 1

