
OS:Version,
  {b60db6b8-4a2b-4140-b306-e9c128bd320b}, ! Handle
  0.9.3;                                  ! Version Identifier

OS:SizingPeriod:DesignDay,
  {2ad9c4e0-40b7-4b1c-95bc-240cc43e3022}, ! Handle
  Alexandria Esler Regional Ap Ann Htg Wind 99% Condns WS=>MCDB, ! Name
  17.5,                                   ! Maximum Dry-Bulb Temperature {C}
  0,                                      ! Daily Dry-Bulb Temperature Range {deltaC}
  17.5,                                   ! Humidity Indicating Conditions at Maximum Dry-Bulb {BasedOnField A3}
  100917,                                 ! Barometric Pressure {Pa}
  7.6,                                    ! Wind Speed {m/s}
  40,                                     ! Wind Direction {deg}
  0,                                      ! Sky Clearness
  0,                                      ! Rain Indicator
  0,                                      ! Snow Indicator
  21,                                     ! Day of Month
  12,                                     ! Month
  WinterDesignDay,                        ! Day Type
  0,                                      ! Daylight Saving Time Indicator
  Wetbulb,                                ! Humidity Indicating Type
  ,                                       ! Humidity Indicating Day Schedule Name
  DefaultMultipliers,                     ! Dry-Bulb Temperature Range Modifier Type
  ,                                       ! Dry-Bulb Temperature Range Modifier Schedule Name
  ASHRAEClearSky;                         ! Solar Model Indicator

OS:ComponentData,
  {718bc049-26cb-48ad-9eae-596b0d64609f}, ! Handle
  Component Data 1,                       ! Name
  {25aece6b-8e9a-4f89-bd6a-4c7b67071b88}, ! UUID
  {60c2e850-e5fa-46ed-bb72-28f6c061823f}, ! Version UUID
  1366307694,                             ! Creation Timestamp
  1366307694,                             ! Version Timestamp
  {2ad9c4e0-40b7-4b1c-95bc-240cc43e3022}; ! Name of Object 1

