
OS:Version,
  {7e8a7371-2911-44df-b487-fdddfa442b05}, ! Handle
  0.9.3;                                  ! Version Identifier

OS:SizingPeriod:DesignDay,
  {2e58c8d1-047a-4ea5-8b8c-162c5daf39ea}, ! Handle
  Baker Municipal Ap Ann Clg .4% Condns Enth=>MDB, ! Name
  30.5,                                   ! Maximum Dry-Bulb Temperature {C}
  19.6,                                   ! Daily Dry-Bulb Temperature Range {deltaC}
  56000,                                  ! Humidity Indicating Conditions at Maximum Dry-Bulb {BasedOnField A3}
  89581,                                  ! Barometric Pressure {Pa}
  3.9,                                    ! Wind Speed {m/s}
  320,                                    ! Wind Direction {deg}
  0,                                      ! Sky Clearness
  0,                                      ! Rain Indicator
  0,                                      ! Snow Indicator
  21,                                     ! Day of Month
  7,                                      ! Month
  SummerDesignDay,                        ! Day Type
  0,                                      ! Daylight Saving Time Indicator
  Enthalpy,                               ! Humidity Indicating Type
  ,                                       ! Humidity Indicating Day Schedule Name
  DefaultMultipliers,                     ! Dry-Bulb Temperature Range Modifier Type
  ,                                       ! Dry-Bulb Temperature Range Modifier Schedule Name
  ASHRAETau,                              ! Solar Model Indicator
  ,                                       ! Beam Solar Day Schedule Name
  ,                                       ! Diffuse Solar Day Schedule Name
  0.363,                                  ! ASHRAE Taub {dimensionless}
  2.324;                                  ! ASHRAE Taud {dimensionless}

OS:ComponentData,
  {1bf5d3d4-22fb-4b04-92e0-64581655eca9}, ! Handle
  Component Data 1,                       ! Name
  {d78c6a0b-fcf0-41be-816f-c9f295ef13b9}, ! UUID
  {41345759-dee3-4b1b-9de5-18bb059c29db}, ! Version UUID
  1366309988,                             ! Creation Timestamp
  1366309988,                             ! Version Timestamp
  {2e58c8d1-047a-4ea5-8b8c-162c5daf39ea}; ! Name of Object 1

