
OS:Version,
  {398f9647-d9ca-4e04-8d96-961e62ddccf0}, ! Handle
  0.9.3;                                  ! Version Identifier

OS:SizingPeriod:DesignDay,
  {a6a4f307-fb8a-4ce1-a278-07b4f55391df}, ! Handle
  Honolulu Intl Arpt Ann Clg 1% Condns DB=>MWB, ! Name
  31.7,                                   ! Maximum Dry-Bulb Temperature {C}
  7.1,                                    ! Daily Dry-Bulb Temperature Range {deltaC}
  23.1,                                   ! Humidity Indicating Conditions at Maximum Dry-Bulb {BasedOnField A3}
  101301,                                 ! Barometric Pressure {Pa}
  6.7,                                    ! Wind Speed {m/s}
  60,                                     ! Wind Direction {deg}
  0,                                      ! Sky Clearness
  0,                                      ! Rain Indicator
  0,                                      ! Snow Indicator
  21,                                     ! Day of Month
  8,                                      ! Month
  SummerDesignDay,                        ! Day Type
  0,                                      ! Daylight Saving Time Indicator
  Wetbulb,                                ! Humidity Indicating Type
  ,                                       ! Humidity Indicating Day Schedule Name
  DefaultMultipliers,                     ! Dry-Bulb Temperature Range Modifier Type
  ,                                       ! Dry-Bulb Temperature Range Modifier Schedule Name
  ASHRAETau,                              ! Solar Model Indicator
  ,                                       ! Beam Solar Day Schedule Name
  ,                                       ! Diffuse Solar Day Schedule Name
  0.382,                                  ! ASHRAE Taub {dimensionless}
  2.521;                                  ! ASHRAE Taud {dimensionless}

OS:ComponentData,
  {29359e01-78df-4857-b7c0-9deac07d4f1e}, ! Handle
  Component Data 1,                       ! Name
  {366a62a0-8599-417d-91d4-ae53db864bec}, ! UUID
  {284d90c0-b27f-4c40-be88-d2c2f8bcd4ce}, ! Version UUID
  1366307093,                             ! Creation Timestamp
  1366307093,                             ! Version Timestamp
  {a6a4f307-fb8a-4ce1-a278-07b4f55391df}; ! Name of Object 1

