
OS:Version,
  {a094e66e-839f-4126-972e-58880025fcff}, ! Handle
  0.9.3;                                  ! Version Identifier

OS:SizingPeriod:DesignDay,
  {6fbe0540-22e2-4053-8f0b-3c1575adc515}, ! Handle
  Altoona Blair Co Arpt Ann Clg 2% Condns WB=>MDB, ! Name
  26.6,                                   ! Maximum Dry-Bulb Temperature {C}
  10.7,                                   ! Daily Dry-Bulb Temperature Range {deltaC}
  22,                                     ! Humidity Indicating Conditions at Maximum Dry-Bulb {BasedOnField A3}
  96023,                                  ! Barometric Pressure {Pa}
  3.6,                                    ! Wind Speed {m/s}
  280,                                    ! Wind Direction {deg}
  0,                                      ! Sky Clearness
  0,                                      ! Rain Indicator
  0,                                      ! Snow Indicator
  21,                                     ! Day of Month
  7,                                      ! Month
  SummerDesignDay,                        ! Day Type
  0,                                      ! Daylight Saving Time Indicator
  Wetbulb,                                ! Humidity Indicating Type
  ,                                       ! Humidity Indicating Day Schedule Name
  DefaultMultipliers,                     ! Dry-Bulb Temperature Range Modifier Type
  ,                                       ! Dry-Bulb Temperature Range Modifier Schedule Name
  ASHRAETau,                              ! Solar Model Indicator
  ,                                       ! Beam Solar Day Schedule Name
  ,                                       ! Diffuse Solar Day Schedule Name
  0.482,                                  ! ASHRAE Taub {dimensionless}
  1.913;                                  ! ASHRAE Taud {dimensionless}

OS:ComponentData,
  {a3762866-8fb2-40f4-80cd-72c620464723}, ! Handle
  Component Data 1,                       ! Name
  {3afbb19e-04d4-41af-8da5-fe21588908ce}, ! UUID
  {79924ecd-a02f-43d9-a711-e5f4ecd0c45e}, ! Version UUID
  1366310141,                             ! Creation Timestamp
  1366310141,                             ! Version Timestamp
  {6fbe0540-22e2-4053-8f0b-3c1575adc515}; ! Name of Object 1

