
OS:Version,
  {d26912d8-bb30-4581-8b0d-84f8377cd75a}, ! Handle
  0.9.3;                                  ! Version Identifier

OS:SizingPeriod:DesignDay,
  {108b3733-7c0f-4c85-a1b8-b0f279df1648}, ! Handle
  Cheyenne Municipal Arpt Ann Htg Wind 99.6% Condns WS=>MCDB, ! Name
  1.4,                                    ! Maximum Dry-Bulb Temperature {C}
  0,                                      ! Daily Dry-Bulb Temperature Range {deltaC}
  1.4,                                    ! Humidity Indicating Conditions at Maximum Dry-Bulb {BasedOnField A3}
  80817,                                  ! Barometric Pressure {Pa}
  18.1,                                   ! Wind Speed {m/s}
  0,                                      ! Wind Direction {deg}
  0,                                      ! Sky Clearness
  0,                                      ! Rain Indicator
  0,                                      ! Snow Indicator
  21,                                     ! Day of Month
  12,                                     ! Month
  WinterDesignDay,                        ! Day Type
  0,                                      ! Daylight Saving Time Indicator
  Wetbulb,                                ! Humidity Indicating Type
  ,                                       ! Humidity Indicating Day Schedule Name
  DefaultMultipliers,                     ! Dry-Bulb Temperature Range Modifier Type
  ,                                       ! Dry-Bulb Temperature Range Modifier Schedule Name
  ASHRAEClearSky;                         ! Solar Model Indicator

OS:ComponentData,
  {2a9dd34c-d961-4e4e-9c34-a0236e73800b}, ! Handle
  Component Data 1,                       ! Name
  {e926f13b-67fe-4839-845d-d46da0863708}, ! UUID
  {93e42f49-607f-4122-a769-3e3fa8e019d5}, ! Version UUID
  1366311710,                             ! Creation Timestamp
  1366311710,                             ! Version Timestamp
  {108b3733-7c0f-4c85-a1b8-b0f279df1648}; ! Name of Object 1

