
OS:Version,
  {d802775c-5569-4641-a5e0-eb503798a376}, ! Handle
  0.9.3;                                  ! Version Identifier

OS:SizingPeriod:DesignDay,
  {fbae58a0-f1b1-4e55-91f1-51bab32e4ad3}, ! Handle
  Joslin Fld Magic Va  Twin Fal Ann Clg 2% Condns Enth=>MDB, ! Name
  28.7,                                   ! Maximum Dry-Bulb Temperature {C}
  15.7,                                   ! Daily Dry-Bulb Temperature Range {deltaC}
  54600,                                  ! Humidity Indicating Conditions at Maximum Dry-Bulb {BasedOnField A3}
  87716,                                  ! Barometric Pressure {Pa}
  4,                                      ! Wind Speed {m/s}
  320,                                    ! Wind Direction {deg}
  0,                                      ! Sky Clearness
  0,                                      ! Rain Indicator
  0,                                      ! Snow Indicator
  21,                                     ! Day of Month
  7,                                      ! Month
  SummerDesignDay,                        ! Day Type
  0,                                      ! Daylight Saving Time Indicator
  Enthalpy,                               ! Humidity Indicating Type
  ,                                       ! Humidity Indicating Day Schedule Name
  DefaultMultipliers,                     ! Dry-Bulb Temperature Range Modifier Type
  ,                                       ! Dry-Bulb Temperature Range Modifier Schedule Name
  ASHRAETau,                              ! Solar Model Indicator
  ,                                       ! Beam Solar Day Schedule Name
  ,                                       ! Diffuse Solar Day Schedule Name
  0.42,                                   ! ASHRAE Taub {dimensionless}
  1.979;                                  ! ASHRAE Taud {dimensionless}

OS:ComponentData,
  {eb0a95c5-7bff-4482-8967-cfd18c3251de}, ! Handle
  Component Data 1,                       ! Name
  {ad861989-5db6-4ab1-abfc-6eab0de5ddcd}, ! UUID
  {9e91b576-8f6b-42b4-9d30-16b15a4bb152}, ! Version UUID
  1366307316,                             ! Creation Timestamp
  1366307316,                             ! Version Timestamp
  {fbae58a0-f1b1-4e55-91f1-51bab32e4ad3}; ! Name of Object 1

