
OS:Version,
  {966b2eea-b6d0-4d6a-b31e-49f13c4a89fd}, ! Handle
  0.9.3;                                  ! Version Identifier

OS:SizingPeriod:DesignDay,
  {cad7056c-93ea-444e-b48b-ac233181a6bf}, ! Handle
  Del Rio  Ut Ann Clg 1% Condns DB=>MWB,  ! Name
  37.4,                                   ! Maximum Dry-Bulb Temperature {C}
  11.4,                                   ! Daily Dry-Bulb Temperature Range {deltaC}
  22.4,                                   ! Humidity Indicating Conditions at Maximum Dry-Bulb {BasedOnField A3}
  97679,                                  ! Barometric Pressure {Pa}
  4.8,                                    ! Wind Speed {m/s}
  140,                                    ! Wind Direction {deg}
  0,                                      ! Sky Clearness
  0,                                      ! Rain Indicator
  0,                                      ! Snow Indicator
  21,                                     ! Day of Month
  7,                                      ! Month
  SummerDesignDay,                        ! Day Type
  0,                                      ! Daylight Saving Time Indicator
  Wetbulb,                                ! Humidity Indicating Type
  ,                                       ! Humidity Indicating Day Schedule Name
  DefaultMultipliers,                     ! Dry-Bulb Temperature Range Modifier Type
  ,                                       ! Dry-Bulb Temperature Range Modifier Schedule Name
  ASHRAETau,                              ! Solar Model Indicator
  ,                                       ! Beam Solar Day Schedule Name
  ,                                       ! Diffuse Solar Day Schedule Name
  0.48,                                   ! ASHRAE Taub {dimensionless}
  1.993;                                  ! ASHRAE Taud {dimensionless}

OS:ComponentData,
  {841af075-4fb5-4633-9986-f6adc9e8fb2d}, ! Handle
  Component Data 1,                       ! Name
  {f4f122c2-72f9-48dc-a3e5-2d6ac8b2cc11}, ! UUID
  {2e8f4ef0-5743-4521-bc43-52da0aa9aa78}, ! Version UUID
  1366310676,                             ! Creation Timestamp
  1366310676,                             ! Version Timestamp
  {cad7056c-93ea-444e-b48b-ac233181a6bf}; ! Name of Object 1

