
OS:Version,
  {9251e5b9-6b1e-46ee-8e09-2f890f22fb32}, ! Handle
  0.9.3;                                  ! Version Identifier

OS:SizingPeriod:DesignDay,
  {c55dce76-eadb-49e0-ae05-845544441594}, ! Handle
  Bishop Airport Ann Clg .4% Condns Enth=>MDB, ! Name
  34.3,                                   ! Maximum Dry-Bulb Temperature {C}
  21.9,                                   ! Daily Dry-Bulb Temperature Range {deltaC}
  59700,                                  ! Humidity Indicating Conditions at Maximum Dry-Bulb {BasedOnField A3}
  87182,                                  ! Barometric Pressure {Pa}
  4.6,                                    ! Wind Speed {m/s}
  160,                                    ! Wind Direction {deg}
  0,                                      ! Sky Clearness
  0,                                      ! Rain Indicator
  0,                                      ! Snow Indicator
  21,                                     ! Day of Month
  7,                                      ! Month
  SummerDesignDay,                        ! Day Type
  0,                                      ! Daylight Saving Time Indicator
  Enthalpy,                               ! Humidity Indicating Type
  ,                                       ! Humidity Indicating Day Schedule Name
  DefaultMultipliers,                     ! Dry-Bulb Temperature Range Modifier Type
  ,                                       ! Dry-Bulb Temperature Range Modifier Schedule Name
  ASHRAETau,                              ! Solar Model Indicator
  ,                                       ! Beam Solar Day Schedule Name
  ,                                       ! Diffuse Solar Day Schedule Name
  0.509,                                  ! ASHRAE Taub {dimensionless}
  1.813;                                  ! ASHRAE Taud {dimensionless}

OS:ComponentData,
  {02153e8d-6633-46b0-800f-320c0a777632}, ! Handle
  Component Data 1,                       ! Name
  {543a72c2-7948-47a6-a662-8b89839760d1}, ! UUID
  {c21df250-d3ec-4652-91fe-88ffd14117a9}, ! Version UUID
  1366306384,                             ! Creation Timestamp
  1366306384,                             ! Version Timestamp
  {c55dce76-eadb-49e0-ae05-845544441594}; ! Name of Object 1

