
OS:Version,
  {3777f391-362a-4179-84cf-bdf0d1661f05}, ! Handle
  0.9.3;                                  ! Version Identifier

OS:SizingPeriod:DesignDay,
  {639f7f6f-ef05-43a4-b290-5ac06bb543b2}, ! Handle
  Fresno Yosemite Intl Ap Ann Clg 1% Condns Enth=>MDB, ! Name
  35.4,                                   ! Maximum Dry-Bulb Temperature {C}
  16.4,                                   ! Daily Dry-Bulb Temperature Range {deltaC}
  65600,                                  ! Humidity Indicating Conditions at Maximum Dry-Bulb {BasedOnField A3}
  100106,                                 ! Barometric Pressure {Pa}
  3.7,                                    ! Wind Speed {m/s}
  300,                                    ! Wind Direction {deg}
  0,                                      ! Sky Clearness
  0,                                      ! Rain Indicator
  0,                                      ! Snow Indicator
  21,                                     ! Day of Month
  7,                                      ! Month
  SummerDesignDay,                        ! Day Type
  0,                                      ! Daylight Saving Time Indicator
  Enthalpy,                               ! Humidity Indicating Type
  ,                                       ! Humidity Indicating Day Schedule Name
  DefaultMultipliers,                     ! Dry-Bulb Temperature Range Modifier Type
  ,                                       ! Dry-Bulb Temperature Range Modifier Schedule Name
  ASHRAETau,                              ! Solar Model Indicator
  ,                                       ! Beam Solar Day Schedule Name
  ,                                       ! Diffuse Solar Day Schedule Name
  0.428,                                  ! ASHRAE Taub {dimensionless}
  2.152;                                  ! ASHRAE Taud {dimensionless}

OS:ComponentData,
  {2b804a29-41ed-404b-a597-617181196e61}, ! Handle
  Component Data 1,                       ! Name
  {cb7e6053-f608-4e32-b156-159af38e3e6a}, ! UUID
  {57dd796f-7729-412d-b8e2-b43d084e5179}, ! Version UUID
  1366306440,                             ! Creation Timestamp
  1366306440,                             ! Version Timestamp
  {639f7f6f-ef05-43a4-b290-5ac06bb543b2}; ! Name of Object 1

