
OS:Version,
  {458848fa-4a39-4f87-ad34-d5df6aeae493}, ! Handle
  0.9.3;                                  ! Version Identifier

OS:SizingPeriod:DesignDay,
  {8f7db57b-5fba-41d8-be17-517303e8dee2}, ! Handle
  Franklin Ann Clg 2% Condns DB=>MWB,     ! Name
  27.2,                                   ! Maximum Dry-Bulb Temperature {C}
  10.1,                                   ! Daily Dry-Bulb Temperature Range {deltaC}
  20.3,                                   ! Humidity Indicating Conditions at Maximum Dry-Bulb {BasedOnField A3}
  95805,                                  ! Barometric Pressure {Pa}
  3.5,                                    ! Wind Speed {m/s}
  200,                                    ! Wind Direction {deg}
  0,                                      ! Sky Clearness
  0,                                      ! Rain Indicator
  0,                                      ! Snow Indicator
  21,                                     ! Day of Month
  7,                                      ! Month
  SummerDesignDay,                        ! Day Type
  0,                                      ! Daylight Saving Time Indicator
  Wetbulb,                                ! Humidity Indicating Type
  ,                                       ! Humidity Indicating Day Schedule Name
  DefaultMultipliers,                     ! Dry-Bulb Temperature Range Modifier Type
  ,                                       ! Dry-Bulb Temperature Range Modifier Schedule Name
  ASHRAETau,                              ! Solar Model Indicator
  ,                                       ! Beam Solar Day Schedule Name
  ,                                       ! Diffuse Solar Day Schedule Name
  0.434,                                  ! ASHRAE Taub {dimensionless}
  2.094;                                  ! ASHRAE Taud {dimensionless}

OS:ComponentData,
  {4f6f5808-d8f0-4ef2-afe3-aaf899ef8824}, ! Handle
  Component Data 1,                       ! Name
  {39ac577f-6603-4cf1-82d1-4aa0e670581f}, ! UUID
  {0f62e498-bc9d-4ae7-8dff-94143635effa}, ! Version UUID
  1366310178,                             ! Creation Timestamp
  1366310178,                             ! Version Timestamp
  {8f7db57b-5fba-41d8-be17-517303e8dee2}; ! Name of Object 1

