
OS:Version,
  {7ae9bb32-1a66-40b9-ab70-bba3d5108e68}, ! Handle
  0.9.3;                                  ! Version Identifier

OS:SizingPeriod:DesignDay,
  {e7da0231-18b4-42af-9e2c-b2216dd32e0e}, ! Handle
  Jacksonville/Int'l Air Ann Clg 1% Condns DB=>MWB, ! Name
  33.7,                                   ! Maximum Dry-Bulb Temperature {C}
  10,                                     ! Daily Dry-Bulb Temperature Range {deltaC}
  25,                                     ! Humidity Indicating Conditions at Maximum Dry-Bulb {BasedOnField A3}
  101217,                                 ! Barometric Pressure {Pa}
  3.6,                                    ! Wind Speed {m/s}
  260,                                    ! Wind Direction {deg}
  0,                                      ! Sky Clearness
  0,                                      ! Rain Indicator
  0,                                      ! Snow Indicator
  21,                                     ! Day of Month
  7,                                      ! Month
  SummerDesignDay,                        ! Day Type
  0,                                      ! Daylight Saving Time Indicator
  Wetbulb,                                ! Humidity Indicating Type
  ,                                       ! Humidity Indicating Day Schedule Name
  DefaultMultipliers,                     ! Dry-Bulb Temperature Range Modifier Type
  ,                                       ! Dry-Bulb Temperature Range Modifier Schedule Name
  ASHRAETau,                              ! Solar Model Indicator
  ,                                       ! Beam Solar Day Schedule Name
  ,                                       ! Diffuse Solar Day Schedule Name
  0.541,                                  ! ASHRAE Taub {dimensionless}
  1.863;                                  ! ASHRAE Taud {dimensionless}

OS:ComponentData,
  {2bfee2ae-9997-4881-98ca-9a120853a9ba}, ! Handle
  Component Data 1,                       ! Name
  {c968c6e3-600b-4c86-9100-8a2465db195f}, ! UUID
  {86596e1a-90c5-4d8b-8a14-4c400effeedc}, ! Version UUID
  1366306819,                             ! Creation Timestamp
  1366306819,                             ! Version Timestamp
  {e7da0231-18b4-42af-9e2c-b2216dd32e0e}; ! Name of Object 1

