
OS:Version,
  {ca501fe8-075d-44fd-a382-e4c1426a9e3a}, ! Handle
  0.9.3;                                  ! Version Identifier

OS:SizingPeriod:DesignDay,
  {9ea5b4fd-ae66-4678-8e4a-2f9a85fff190}, ! Handle
  Brunswick Malcolm Mckinnon Ap Ann Clg .4% Condns DP=>MDB, ! Name
  29.4,                                   ! Maximum Dry-Bulb Temperature {C}
  7.7,                                    ! Daily Dry-Bulb Temperature Range {deltaC}
  25.8,                                   ! Humidity Indicating Conditions at Maximum Dry-Bulb {BasedOnField A3}
  101277,                                 ! Barometric Pressure {Pa}
  4.5,                                    ! Wind Speed {m/s}
  250,                                    ! Wind Direction {deg}
  0,                                      ! Sky Clearness
  0,                                      ! Rain Indicator
  0,                                      ! Snow Indicator
  21,                                     ! Day of Month
  7,                                      ! Month
  SummerDesignDay,                        ! Day Type
  0,                                      ! Daylight Saving Time Indicator
  Dewpoint,                               ! Humidity Indicating Type
  ,                                       ! Humidity Indicating Day Schedule Name
  DefaultMultipliers,                     ! Dry-Bulb Temperature Range Modifier Type
  ,                                       ! Dry-Bulb Temperature Range Modifier Schedule Name
  ASHRAETau,                              ! Solar Model Indicator
  ,                                       ! Beam Solar Day Schedule Name
  ,                                       ! Diffuse Solar Day Schedule Name
  0.564,                                  ! ASHRAE Taub {dimensionless}
  1.805;                                  ! ASHRAE Taud {dimensionless}

