
OS:Version,
  {3f530d69-eeb8-4899-be97-751689d3141d}, ! Handle
  0.9.3;                                  ! Version Identifier

OS:SizingPeriod:DesignDay,
  {16594910-a6e6-4fbc-acf4-fd8f5bbb1ab8}, ! Handle
  Farmville Ann Clg 2% Condns DB=>MWB,    ! Name
  32.3,                                   ! Maximum Dry-Bulb Temperature {C}
  11.5,                                   ! Daily Dry-Bulb Temperature Range {deltaC}
  24.1,                                   ! Humidity Indicating Conditions at Maximum Dry-Bulb {BasedOnField A3}
  99832,                                  ! Barometric Pressure {Pa}
  2.7,                                    ! Wind Speed {m/s}
  250,                                    ! Wind Direction {deg}
  0,                                      ! Sky Clearness
  0,                                      ! Rain Indicator
  0,                                      ! Snow Indicator
  21,                                     ! Day of Month
  7,                                      ! Month
  SummerDesignDay,                        ! Day Type
  0,                                      ! Daylight Saving Time Indicator
  Wetbulb,                                ! Humidity Indicating Type
  ,                                       ! Humidity Indicating Day Schedule Name
  DefaultMultipliers,                     ! Dry-Bulb Temperature Range Modifier Type
  ,                                       ! Dry-Bulb Temperature Range Modifier Schedule Name
  ASHRAETau,                              ! Solar Model Indicator
  ,                                       ! Beam Solar Day Schedule Name
  ,                                       ! Diffuse Solar Day Schedule Name
  0.545,                                  ! ASHRAE Taub {dimensionless}
  1.79;                                   ! ASHRAE Taud {dimensionless}

OS:ComponentData,
  {b1884456-376d-4087-ad6e-b8452c93f36f}, ! Handle
  Component Data 1,                       ! Name
  {f1077c90-0d3e-4e3b-9a7f-738124d2f695}, ! UUID
  {9f85ae7e-e36d-4d4c-be2c-8d7453e70216}, ! Version UUID
  1366311045,                             ! Creation Timestamp
  1366311045,                             ! Version Timestamp
  {16594910-a6e6-4fbc-acf4-fd8f5bbb1ab8}; ! Name of Object 1

