
OS:Version,
  {9bc64658-8e2a-4af3-99e2-b11978a1c57f}, ! Handle
  0.9.3;                                  ! Version Identifier

OS:SizingPeriod:DesignDay,
  {b17c6008-2f4c-462d-aad0-52aaf77e4e2a}, ! Handle
  BETHEL Ann Clg 1% Condns DP=>MDB,       ! Name
  15.5,                                   ! Maximum Dry-Bulb Temperature {C}
  7.7,                                    ! Daily Dry-Bulb Temperature Range {deltaC}
  12.9,                                   ! Humidity Indicating Conditions at Maximum Dry-Bulb {BasedOnField A3}
  100774,                                 ! Barometric Pressure {Pa}
  4.9,                                    ! Wind Speed {m/s}
  10,                                     ! Wind Direction {deg}
  0,                                      ! Sky Clearness
  0,                                      ! Rain Indicator
  0,                                      ! Snow Indicator
  21,                                     ! Day of Month
  7,                                      ! Month
  SummerDesignDay,                        ! Day Type
  0,                                      ! Daylight Saving Time Indicator
  Dewpoint,                               ! Humidity Indicating Type
  ,                                       ! Humidity Indicating Day Schedule Name
  DefaultMultipliers,                     ! Dry-Bulb Temperature Range Modifier Type
  ,                                       ! Dry-Bulb Temperature Range Modifier Schedule Name
  ASHRAETau,                              ! Solar Model Indicator
  ,                                       ! Beam Solar Day Schedule Name
  ,                                       ! Diffuse Solar Day Schedule Name
  0.383,                                  ! ASHRAE Taub {dimensionless}
  2.185;                                  ! ASHRAE Taud {dimensionless}

OS:ComponentData,
  {dfb30c9e-e985-4f51-b259-3c944bfdf345}, ! Handle
  Component Data 1,                       ! Name
  {40cfcef3-d270-4c3d-9dd0-e21437ca60e8}, ! UUID
  {9eaca879-4ea5-45e1-adff-8319c4e75e2b}, ! Version UUID
  1366304748,                             ! Creation Timestamp
  1366304748,                             ! Version Timestamp
  {b17c6008-2f4c-462d-aad0-52aaf77e4e2a}; ! Name of Object 1

