
OS:Version,
  {10c981cb-96de-46b5-a881-3da7696db656}, ! Handle
  0.9.3;                                  ! Version Identifier

OS:SizingPeriod:DesignDay,
  {a97018cf-c066-4856-9645-ac35c3847457}, ! Handle
  Abilene Dyess Afb Ann Clg .4% Condns DB=>MWB, ! Name
  38.6,                                   ! Maximum Dry-Bulb Temperature {C}
  12.4,                                   ! Daily Dry-Bulb Temperature Range {deltaC}
  22.3,                                   ! Humidity Indicating Conditions at Maximum Dry-Bulb {BasedOnField A3}
  94947,                                  ! Barometric Pressure {Pa}
  4.5,                                    ! Wind Speed {m/s}
  170,                                    ! Wind Direction {deg}
  0,                                      ! Sky Clearness
  0,                                      ! Rain Indicator
  0,                                      ! Snow Indicator
  21,                                     ! Day of Month
  7,                                      ! Month
  SummerDesignDay,                        ! Day Type
  0,                                      ! Daylight Saving Time Indicator
  Wetbulb,                                ! Humidity Indicating Type
  ,                                       ! Humidity Indicating Day Schedule Name
  DefaultMultipliers,                     ! Dry-Bulb Temperature Range Modifier Type
  ,                                       ! Dry-Bulb Temperature Range Modifier Schedule Name
  ASHRAETau,                              ! Solar Model Indicator
  ,                                       ! Beam Solar Day Schedule Name
  ,                                       ! Diffuse Solar Day Schedule Name
  0.427,                                  ! ASHRAE Taub {dimensionless}
  2.168;                                  ! ASHRAE Taud {dimensionless}

OS:ComponentData,
  {7108bb4a-1925-4b1f-972a-1d329303d38f}, ! Handle
  Component Data 1,                       ! Name
  {e13f8249-2f68-4c02-943e-0a85e3ed9d29}, ! UUID
  {9bf8f1d4-2c88-4cc7-946a-867ebcf442e6}, ! Version UUID
  1366310546,                             ! Creation Timestamp
  1366310546,                             ! Version Timestamp
  {a97018cf-c066-4856-9645-ac35c3847457}; ! Name of Object 1

