
OS:Version,
  {91f54fc1-5884-4297-a433-40a35923278e}, ! Handle
  0.9.3;                                  ! Version Identifier

OS:SizingPeriod:DesignDay,
  {e0ea22a8-178a-4b8b-aa4f-41dd158a8ef0}, ! Handle
  Atlantic City Intl Ap Ann Clg .4% Condns Enth=>MDB, ! Name
  30.9,                                   ! Maximum Dry-Bulb Temperature {C}
  10.2,                                   ! Daily Dry-Bulb Temperature Range {deltaC}
  78000,                                  ! Humidity Indicating Conditions at Maximum Dry-Bulb {BasedOnField A3}
  101109,                                 ! Barometric Pressure {Pa}
  5,                                      ! Wind Speed {m/s}
  230,                                    ! Wind Direction {deg}
  0,                                      ! Sky Clearness
  0,                                      ! Rain Indicator
  0,                                      ! Snow Indicator
  21,                                     ! Day of Month
  7,                                      ! Month
  SummerDesignDay,                        ! Day Type
  0,                                      ! Daylight Saving Time Indicator
  Enthalpy,                               ! Humidity Indicating Type
  ,                                       ! Humidity Indicating Day Schedule Name
  DefaultMultipliers,                     ! Dry-Bulb Temperature Range Modifier Type
  ,                                       ! Dry-Bulb Temperature Range Modifier Schedule Name
  ASHRAETau,                              ! Solar Model Indicator
  ,                                       ! Beam Solar Day Schedule Name
  ,                                       ! Diffuse Solar Day Schedule Name
  0.557,                                  ! ASHRAE Taub {dimensionless}
  1.774;                                  ! ASHRAE Taud {dimensionless}

OS:ComponentData,
  {7e98c5ac-d8ce-4513-9ae6-622ccc175e17}, ! Handle
  Component Data 1,                       ! Name
  {5d829000-e8c7-430a-a678-9b3b802a902b}, ! UUID
  {02a6b15d-85ed-42ca-86a1-0571724ffa43}, ! Version UUID
  1366309291,                             ! Creation Timestamp
  1366309291,                             ! Version Timestamp
  {e0ea22a8-178a-4b8b-aa4f-41dd158a8ef0}; ! Name of Object 1

