
OS:Version,
  {cdc00019-dd7f-4279-9ca7-f5801051a761}, ! Handle
  0.9.3;                                  ! Version Identifier

OS:SizingPeriod:DesignDay,
  {2793da62-768c-44d2-aa45-e746a5dac484}, ! Handle
  Batesville  Awos Ann Htg Wind 99.6% Condns WS=>MCDB, ! Name
  11.2,                                   ! Maximum Dry-Bulb Temperature {C}
  0,                                      ! Daily Dry-Bulb Temperature Range {deltaC}
  11.2,                                   ! Humidity Indicating Conditions at Maximum Dry-Bulb {BasedOnField A3}
  99643,                                  ! Barometric Pressure {Pa}
  8.9,                                    ! Wind Speed {m/s}
  330,                                    ! Wind Direction {deg}
  0,                                      ! Sky Clearness
  0,                                      ! Rain Indicator
  0,                                      ! Snow Indicator
  21,                                     ! Day of Month
  1,                                      ! Month
  WinterDesignDay,                        ! Day Type
  0,                                      ! Daylight Saving Time Indicator
  Wetbulb,                                ! Humidity Indicating Type
  ,                                       ! Humidity Indicating Day Schedule Name
  DefaultMultipliers,                     ! Dry-Bulb Temperature Range Modifier Type
  ,                                       ! Dry-Bulb Temperature Range Modifier Schedule Name
  ASHRAEClearSky;                         ! Solar Model Indicator

OS:ComponentData,
  {5059173e-ac0a-42c4-8cc7-f41e5c9426b4}, ! Handle
  Component Data 1,                       ! Name
  {ae967d3e-94ca-4fe0-b624-cd7d6d824b29}, ! UUID
  {d5b65826-4c44-4151-8e2c-4e2c7c120805}, ! Version UUID
  1366306054,                             ! Creation Timestamp
  1366306054,                             ! Version Timestamp
  {2793da62-768c-44d2-aa45-e746a5dac484}; ! Name of Object 1

