
OS:Version,
  {ed74c7ca-7202-49ef-be6f-a5eb0ba03a38}, ! Handle
  0.9.3;                                  ! Version Identifier

OS:SizingPeriod:DesignDay,
  {c313b344-551c-4cb8-9a99-05674f7af9a4}, ! Handle
  Bellevue Offutt Afb Ann Clg .4% Condns DB=>MWB, ! Name
  35,                                     ! Maximum Dry-Bulb Temperature {C}
  10.3,                                   ! Daily Dry-Bulb Temperature Range {deltaC}
  24.9,                                   ! Humidity Indicating Conditions at Maximum Dry-Bulb {BasedOnField A3}
  97551,                                  ! Barometric Pressure {Pa}
  4.4,                                    ! Wind Speed {m/s}
  160,                                    ! Wind Direction {deg}
  0,                                      ! Sky Clearness
  0,                                      ! Rain Indicator
  0,                                      ! Snow Indicator
  21,                                     ! Day of Month
  7,                                      ! Month
  SummerDesignDay,                        ! Day Type
  0,                                      ! Daylight Saving Time Indicator
  Wetbulb,                                ! Humidity Indicating Type
  ,                                       ! Humidity Indicating Day Schedule Name
  DefaultMultipliers,                     ! Dry-Bulb Temperature Range Modifier Type
  ,                                       ! Dry-Bulb Temperature Range Modifier Schedule Name
  ASHRAETau,                              ! Solar Model Indicator
  ,                                       ! Beam Solar Day Schedule Name
  ,                                       ! Diffuse Solar Day Schedule Name
  0.42,                                   ! ASHRAE Taub {dimensionless}
  2.201;                                  ! ASHRAE Taud {dimensionless}

OS:ComponentData,
  {3e7b43bb-31cf-4bbf-9a76-61f870022a73}, ! Handle
  Component Data 1,                       ! Name
  {174b1758-1202-4e6f-a79a-a8de50387495}, ! UUID
  {64f2054d-2114-4ab9-a34f-f4feeb9b3bb8}, ! Version UUID
  1366309090,                             ! Creation Timestamp
  1366309090,                             ! Version Timestamp
  {c313b344-551c-4cb8-9a99-05674f7af9a4}; ! Name of Object 1

