
OS:Version,
  {80f27051-2e04-441f-8272-d6a4af1bc324}, ! Handle
  0.9.3;                                  ! Version Identifier

OS:SizingPeriod:DesignDay,
  {f5df077c-f295-4318-af48-e72020dce93b}, ! Handle
  Cheyenne Municipal Arpt Ann Clg .4% Condns DB=>MWB, ! Name
  31.8,                                   ! Maximum Dry-Bulb Temperature {C}
  14.6,                                   ! Daily Dry-Bulb Temperature Range {deltaC}
  14.8,                                   ! Humidity Indicating Conditions at Maximum Dry-Bulb {BasedOnField A3}
  80817,                                  ! Barometric Pressure {Pa}
  5.3,                                    ! Wind Speed {m/s}
  170,                                    ! Wind Direction {deg}
  0,                                      ! Sky Clearness
  0,                                      ! Rain Indicator
  0,                                      ! Snow Indicator
  21,                                     ! Day of Month
  7,                                      ! Month
  SummerDesignDay,                        ! Day Type
  0,                                      ! Daylight Saving Time Indicator
  Wetbulb,                                ! Humidity Indicating Type
  ,                                       ! Humidity Indicating Day Schedule Name
  DefaultMultipliers,                     ! Dry-Bulb Temperature Range Modifier Type
  ,                                       ! Dry-Bulb Temperature Range Modifier Schedule Name
  ASHRAETau,                              ! Solar Model Indicator
  ,                                       ! Beam Solar Day Schedule Name
  ,                                       ! Diffuse Solar Day Schedule Name
  0.404,                                  ! ASHRAE Taub {dimensionless}
  2.038;                                  ! ASHRAE Taud {dimensionless}

OS:ComponentData,
  {2f26bc5b-c515-42ea-a040-95d5d0dc269e}, ! Handle
  Component Data 1,                       ! Name
  {25f39023-5050-45e8-82ee-488d0f8a57a8}, ! UUID
  {660b4eb6-cf26-4d2d-bf9e-94d5d421a320}, ! Version UUID
  1366311711,                             ! Creation Timestamp
  1366311711,                             ! Version Timestamp
  {f5df077c-f295-4318-af48-e72020dce93b}; ! Name of Object 1

