
OS:Version,
  {51d505fc-48a1-4e47-bfa4-4df0585151a8}, ! Handle
  0.9.3;                                  ! Version Identifier

OS:SizingPeriod:DesignDay,
  {7ab82a94-a7ba-44d8-b14c-88df8d1ab164}, ! Handle
  Kansas City Downtown Ap Ann Clg 2% Condns WB=>MDB, ! Name
  31.2,                                   ! Maximum Dry-Bulb Temperature {C}
  9.5,                                    ! Daily Dry-Bulb Temperature Range {deltaC}
  25,                                     ! Humidity Indicating Conditions at Maximum Dry-Bulb {BasedOnField A3}
  98639,                                  ! Barometric Pressure {Pa}
  5.4,                                    ! Wind Speed {m/s}
  210,                                    ! Wind Direction {deg}
  0,                                      ! Sky Clearness
  0,                                      ! Rain Indicator
  0,                                      ! Snow Indicator
  21,                                     ! Day of Month
  7,                                      ! Month
  SummerDesignDay,                        ! Day Type
  0,                                      ! Daylight Saving Time Indicator
  Wetbulb,                                ! Humidity Indicating Type
  ,                                       ! Humidity Indicating Day Schedule Name
  DefaultMultipliers,                     ! Dry-Bulb Temperature Range Modifier Type
  ,                                       ! Dry-Bulb Temperature Range Modifier Schedule Name
  ASHRAETau,                              ! Solar Model Indicator
  ,                                       ! Beam Solar Day Schedule Name
  ,                                       ! Diffuse Solar Day Schedule Name
  0.445,                                  ! ASHRAE Taub {dimensionless}
  2.122;                                  ! ASHRAE Taud {dimensionless}

OS:ComponentData,
  {04f42aca-edf4-4e70-af3b-7c11d1a4a0a9}, ! Handle
  Component Data 1,                       ! Name
  {d37aac5b-7539-4618-9ed9-0271abaf5051}, ! UUID
  {e6e849e2-81dc-4d42-bbd8-fbfe6a6da899}, ! Version UUID
  1366308527,                             ! Creation Timestamp
  1366308527,                             ! Version Timestamp
  {7ab82a94-a7ba-44d8-b14c-88df8d1ab164}; ! Name of Object 1

