
OS:Version,
  {87e60f3d-3abd-4fde-97ba-f31441715598}, ! Handle
  0.9.3;                                  ! Version Identifier

OS:SizingPeriod:DesignDay,
  {44d38175-7001-4499-8639-9f374f8534f0}, ! Handle
  Casa Granda  Awos Ann Htg 99.6% Condns DB, ! Name
  0,                                      ! Maximum Dry-Bulb Temperature {C}
  0,                                      ! Daily Dry-Bulb Temperature Range {deltaC}
  0,                                      ! Humidity Indicating Conditions at Maximum Dry-Bulb {BasedOnField A3}
  96081,                                  ! Barometric Pressure {Pa}
  1.4,                                    ! Wind Speed {m/s}
  50,                                     ! Wind Direction {deg}
  0,                                      ! Sky Clearness
  0,                                      ! Rain Indicator
  0,                                      ! Snow Indicator
  21,                                     ! Day of Month
  12,                                     ! Month
  WinterDesignDay,                        ! Day Type
  0,                                      ! Daylight Saving Time Indicator
  Wetbulb,                                ! Humidity Indicating Type
  ,                                       ! Humidity Indicating Day Schedule Name
  DefaultMultipliers,                     ! Dry-Bulb Temperature Range Modifier Type
  ,                                       ! Dry-Bulb Temperature Range Modifier Schedule Name
  ASHRAEClearSky;                         ! Solar Model Indicator

OS:ComponentData,
  {df3abe86-3b7a-4076-a696-c2d59c7a9f9b}, ! Handle
  Component Data 1,                       ! Name
  {299fbd70-441a-429e-b635-7a42071701df}, ! UUID
  {a29d4bfb-5b9b-490d-98c9-51f207486ec1}, ! Version UUID
  1366306260,                             ! Creation Timestamp
  1366306260,                             ! Version Timestamp
  {44d38175-7001-4499-8639-9f374f8534f0}; ! Name of Object 1

