
OS:Version,
  {31b4f267-efaf-4fa8-9a95-3f231c8f81fc}, ! Handle
  0.9.3;                                  ! Version Identifier

OS:SizingPeriod:DesignDay,
  {c10d6e9c-5d0c-40c7-8f2f-83dfd9bba48f}, ! Handle
  Bishop Airport Ann Clg .4% Condns Enth=>MDB, ! Name
  34.3,                                   ! Maximum Dry-Bulb Temperature {C}
  21.9,                                   ! Daily Dry-Bulb Temperature Range {deltaC}
  59700,                                  ! Humidity Indicating Conditions at Maximum Dry-Bulb {BasedOnField A3}
  87182,                                  ! Barometric Pressure {Pa}
  4.6,                                    ! Wind Speed {m/s}
  160,                                    ! Wind Direction {deg}
  0,                                      ! Sky Clearness
  0,                                      ! Rain Indicator
  0,                                      ! Snow Indicator
  21,                                     ! Day of Month
  7,                                      ! Month
  SummerDesignDay,                        ! Day Type
  0,                                      ! Daylight Saving Time Indicator
  Enthalpy,                               ! Humidity Indicating Type
  ,                                       ! Humidity Indicating Day Schedule Name
  DefaultMultipliers,                     ! Dry-Bulb Temperature Range Modifier Type
  ,                                       ! Dry-Bulb Temperature Range Modifier Schedule Name
  ASHRAETau,                              ! Solar Model Indicator
  ,                                       ! Beam Solar Day Schedule Name
  ,                                       ! Diffuse Solar Day Schedule Name
  0.509,                                  ! ASHRAE Taub {dimensionless}
  1.813;                                  ! ASHRAE Taud {dimensionless}

