
OS:Version,
  {458e62ca-0f0a-42f7-bbae-f9136ad4cecb}, ! Handle
  0.9.3;                                  ! Version Identifier

OS:SizingPeriod:DesignDay,
  {e3d68e8a-57de-48dd-bd3d-7f12696b254d}, ! Handle
  Fort Worth Nas Ann Clg 1% Condns DB=>MWB, ! Name
  36.9,                                   ! Maximum Dry-Bulb Temperature {C}
  10.7,                                   ! Daily Dry-Bulb Temperature Range {deltaC}
  24,                                     ! Humidity Indicating Conditions at Maximum Dry-Bulb {BasedOnField A3}
  99122,                                  ! Barometric Pressure {Pa}
  4,                                      ! Wind Speed {m/s}
  160,                                    ! Wind Direction {deg}
  0,                                      ! Sky Clearness
  0,                                      ! Rain Indicator
  0,                                      ! Snow Indicator
  21,                                     ! Day of Month
  7,                                      ! Month
  SummerDesignDay,                        ! Day Type
  0,                                      ! Daylight Saving Time Indicator
  Wetbulb,                                ! Humidity Indicating Type
  ,                                       ! Humidity Indicating Day Schedule Name
  DefaultMultipliers,                     ! Dry-Bulb Temperature Range Modifier Type
  ,                                       ! Dry-Bulb Temperature Range Modifier Schedule Name
  ASHRAETau,                              ! Solar Model Indicator
  ,                                       ! Beam Solar Day Schedule Name
  ,                                       ! Diffuse Solar Day Schedule Name
  0.463,                                  ! ASHRAE Taub {dimensionless}
  2.081;                                  ! ASHRAE Taud {dimensionless}

OS:ComponentData,
  {97e376a2-6004-4215-9336-d7be6d096d53}, ! Handle
  Component Data 1,                       ! Name
  {dfc2dc85-b06c-443e-af6e-43c84057ad84}, ! UUID
  {e7321935-efca-4b3d-a5d6-b53c5b8e639f}, ! Version UUID
  1366310713,                             ! Creation Timestamp
  1366310713,                             ! Version Timestamp
  {e3d68e8a-57de-48dd-bd3d-7f12696b254d}; ! Name of Object 1

