
OS:Version,
  {b0591794-9fc4-423b-b192-01000965071c}, ! Handle
  0.9.3;                                  ! Version Identifier

OS:SizingPeriod:DesignDay,
  {d4ce4e54-0901-425e-98e0-d58a598bef60}, ! Handle
  Kotzebue Ralph Wein Memorial Ann Clg 1% Condns WB=>MDB, ! Name
  17.4,                                   ! Maximum Dry-Bulb Temperature {C}
  4.9,                                    ! Daily Dry-Bulb Temperature Range {deltaC}
  14.8,                                   ! Humidity Indicating Conditions at Maximum Dry-Bulb {BasedOnField A3}
  101289,                                 ! Barometric Pressure {Pa}
  4.7,                                    ! Wind Speed {m/s}
  300,                                    ! Wind Direction {deg}
  0,                                      ! Sky Clearness
  0,                                      ! Rain Indicator
  0,                                      ! Snow Indicator
  21,                                     ! Day of Month
  7,                                      ! Month
  SummerDesignDay,                        ! Day Type
  0,                                      ! Daylight Saving Time Indicator
  Wetbulb,                                ! Humidity Indicating Type
  ,                                       ! Humidity Indicating Day Schedule Name
  DefaultMultipliers,                     ! Dry-Bulb Temperature Range Modifier Type
  ,                                       ! Dry-Bulb Temperature Range Modifier Schedule Name
  ASHRAETau,                              ! Solar Model Indicator
  ,                                       ! Beam Solar Day Schedule Name
  ,                                       ! Diffuse Solar Day Schedule Name
  0.374,                                  ! ASHRAE Taub {dimensionless}
  2.244;                                  ! ASHRAE Taud {dimensionless}

OS:ComponentData,
  {54af11ac-4028-4ab9-a895-f16597ebb744}, ! Handle
  Component Data 1,                       ! Name
  {663ffb06-3b32-475d-8369-c919e61682c5}, ! UUID
  {5a348eb2-0b39-424f-b102-68bc45c27497}, ! Version UUID
  1366305389,                             ! Creation Timestamp
  1366305389,                             ! Version Timestamp
  {d4ce4e54-0901-425e-98e0-d58a598bef60}; ! Name of Object 1

