
OS:Version,
  {bf00da46-9d21-476f-b013-c7de687f2a63}, ! Handle
  0.9.3;                                  ! Version Identifier

OS:SizingPeriod:DesignDay,
  {7eae9beb-4dc7-4857-a8d9-bb35e68df118}, ! Handle
  EVANSVILLE Ann Clg .4% Condns DP=>MDB,  ! Name
  29.5,                                   ! Maximum Dry-Bulb Temperature {C}
  10.6,                                   ! Daily Dry-Bulb Temperature Range {deltaC}
  24.7,                                   ! Humidity Indicating Conditions at Maximum Dry-Bulb {BasedOnField A3}
  99915,                                  ! Barometric Pressure {Pa}
  3.7,                                    ! Wind Speed {m/s}
  240,                                    ! Wind Direction {deg}
  0,                                      ! Sky Clearness
  0,                                      ! Rain Indicator
  0,                                      ! Snow Indicator
  21,                                     ! Day of Month
  7,                                      ! Month
  SummerDesignDay,                        ! Day Type
  0,                                      ! Daylight Saving Time Indicator
  Dewpoint,                               ! Humidity Indicating Type
  ,                                       ! Humidity Indicating Day Schedule Name
  DefaultMultipliers,                     ! Dry-Bulb Temperature Range Modifier Type
  ,                                       ! Dry-Bulb Temperature Range Modifier Schedule Name
  ASHRAETau,                              ! Solar Model Indicator
  ,                                       ! Beam Solar Day Schedule Name
  ,                                       ! Diffuse Solar Day Schedule Name
  0.508,                                  ! ASHRAE Taub {dimensionless}
  1.881;                                  ! ASHRAE Taud {dimensionless}

OS:ComponentData,
  {0410ddf1-54db-4ae7-af56-62f879e3d60a}, ! Handle
  Component Data 1,                       ! Name
  {5793960e-5913-49df-bdff-4818fb1cc024}, ! UUID
  {74b8fa5c-0bb7-4a25-acf6-dde7752b1597}, ! Version UUID
  1366307424,                             ! Creation Timestamp
  1366307424,                             ! Version Timestamp
  {7eae9beb-4dc7-4857-a8d9-bb35e68df118}; ! Name of Object 1

