
OS:Version,
  {73dd4f1b-efa1-491c-9bb3-81b60795ee9f}, ! Handle
  0.9.3;                                  ! Version Identifier

OS:SizingPeriod:DesignDay,
  {640a5ea6-ac2e-4c0b-81d3-5f655d84b87d}, ! Handle
  Concord Municipal Arpt Ann Clg 2% Condns DB=>MWB, ! Name
  28.9,                                   ! Maximum Dry-Bulb Temperature {C}
  12.8,                                   ! Daily Dry-Bulb Temperature Range {deltaC}
  20.4,                                   ! Humidity Indicating Conditions at Maximum Dry-Bulb {BasedOnField A3}
  100058,                                 ! Barometric Pressure {Pa}
  4.4,                                    ! Wind Speed {m/s}
  230,                                    ! Wind Direction {deg}
  0,                                      ! Sky Clearness
  0,                                      ! Rain Indicator
  0,                                      ! Snow Indicator
  21,                                     ! Day of Month
  7,                                      ! Month
  SummerDesignDay,                        ! Day Type
  0,                                      ! Daylight Saving Time Indicator
  Wetbulb,                                ! Humidity Indicating Type
  ,                                       ! Humidity Indicating Day Schedule Name
  DefaultMultipliers,                     ! Dry-Bulb Temperature Range Modifier Type
  ,                                       ! Dry-Bulb Temperature Range Modifier Schedule Name
  ASHRAETau,                              ! Solar Model Indicator
  ,                                       ! Beam Solar Day Schedule Name
  ,                                       ! Diffuse Solar Day Schedule Name
  0.459,                                  ! ASHRAE Taub {dimensionless}
  2.014;                                  ! ASHRAE Taud {dimensionless}

OS:ComponentData,
  {18847ebb-2091-4635-8089-94fad73da2b8}, ! Handle
  Component Data 1,                       ! Name
  {fcd3bfb8-961b-4dd6-9627-110b85c9b7ee}, ! UUID
  {04b0004c-7d73-43ab-801c-33f3e27bc16b}, ! Version UUID
  1366309231,                             ! Creation Timestamp
  1366309231,                             ! Version Timestamp
  {640a5ea6-ac2e-4c0b-81d3-5f655d84b87d}; ! Name of Object 1

