
OS:Version,
  {614d0f73-03da-495e-b518-fefb81c9b9dd}, ! Handle
  0.9.3;                                  ! Version Identifier

OS:SizingPeriod:DesignDay,
  {4712228a-cc75-44f0-9ba1-ed3f4e06030b}, ! Handle
  Fort Drum Wheeler S Ann Clg 2% Condns DP=>MDB, ! Name
  23.6,                                   ! Maximum Dry-Bulb Temperature {C}
  10.6,                                   ! Daily Dry-Bulb Temperature Range {deltaC}
  20.3,                                   ! Humidity Indicating Conditions at Maximum Dry-Bulb {BasedOnField A3}
  98816,                                  ! Barometric Pressure {Pa}
  4.5,                                    ! Wind Speed {m/s}
  250,                                    ! Wind Direction {deg}
  0,                                      ! Sky Clearness
  0,                                      ! Rain Indicator
  0,                                      ! Snow Indicator
  21,                                     ! Day of Month
  7,                                      ! Month
  SummerDesignDay,                        ! Day Type
  0,                                      ! Daylight Saving Time Indicator
  Dewpoint,                               ! Humidity Indicating Type
  ,                                       ! Humidity Indicating Day Schedule Name
  DefaultMultipliers,                     ! Dry-Bulb Temperature Range Modifier Type
  ,                                       ! Dry-Bulb Temperature Range Modifier Schedule Name
  ASHRAETau,                              ! Solar Model Indicator
  ,                                       ! Beam Solar Day Schedule Name
  ,                                       ! Diffuse Solar Day Schedule Name
  0.449,                                  ! ASHRAE Taub {dimensionless}
  2.034;                                  ! ASHRAE Taud {dimensionless}

OS:ComponentData,
  {a1eeb972-19e7-4e8a-b683-c0d06d518d45}, ! Handle
  Component Data 1,                       ! Name
  {29e420f8-bc2f-4b18-bb24-7a5cafda4481}, ! UUID
  {75d8dc56-94f2-4fb2-9c8b-68904d4e5107}, ! Version UUID
  1366309623,                             ! Creation Timestamp
  1366309623,                             ! Version Timestamp
  {4712228a-cc75-44f0-9ba1-ed3f4e06030b}; ! Name of Object 1

