
OS:Version,
  {a95ca550-d566-4b3f-b678-8b0ee9df6f18}, ! Handle
  0.9.3;                                  ! Version Identifier

OS:SizingPeriod:DesignDay,
  {035be9d0-9b5f-44b5-97b6-6c3329b693b1}, ! Handle
  Kona Intl At Keahol Ann Clg 2% Condns Enth=>MDB, ! Name
  28.5,                                   ! Maximum Dry-Bulb Temperature {C}
  5.8,                                    ! Daily Dry-Bulb Temperature Range {deltaC}
  74100,                                  ! Humidity Indicating Conditions at Maximum Dry-Bulb {BasedOnField A3}
  101145,                                 ! Barometric Pressure {Pa}
  5.7,                                    ! Wind Speed {m/s}
  210,                                    ! Wind Direction {deg}
  0,                                      ! Sky Clearness
  0,                                      ! Rain Indicator
  0,                                      ! Snow Indicator
  21,                                     ! Day of Month
  8,                                      ! Month
  SummerDesignDay,                        ! Day Type
  0,                                      ! Daylight Saving Time Indicator
  Enthalpy,                               ! Humidity Indicating Type
  ,                                       ! Humidity Indicating Day Schedule Name
  DefaultMultipliers,                     ! Dry-Bulb Temperature Range Modifier Type
  ,                                       ! Dry-Bulb Temperature Range Modifier Schedule Name
  ASHRAETau,                              ! Solar Model Indicator
  ,                                       ! Beam Solar Day Schedule Name
  ,                                       ! Diffuse Solar Day Schedule Name
  0.404,                                  ! ASHRAE Taub {dimensionless}
  2.462;                                  ! ASHRAE Taud {dimensionless}

OS:ComponentData,
  {7ff15fb4-3c99-4431-bbbe-e64780ab5353}, ! Handle
  Component Data 1,                       ! Name
  {7f4d6228-aa35-4e79-984a-d9ce40bfd0ca}, ! UUID
  {01dea4ba-137f-449e-a04a-d807a43c6b2c}, ! Version UUID
  1366307109,                             ! Creation Timestamp
  1366307109,                             ! Version Timestamp
  {035be9d0-9b5f-44b5-97b6-6c3329b693b1}; ! Name of Object 1

