
OS:Version,
  {d0c10ee2-e5cd-4408-ad87-8982e4c3573d}, ! Handle
  0.9.3;                                  ! Version Identifier

OS:SizingPeriod:DesignDay,
  {4e11d158-623f-4816-bfea-158f85af5852}, ! Handle
  Detroit Willow Run Ap Ann Clg .4% Condns DP=>MDB, ! Name
  27.7,                                   ! Maximum Dry-Bulb Temperature {C}
  11.2,                                   ! Daily Dry-Bulb Temperature Range {deltaC}
  23.2,                                   ! Humidity Indicating Conditions at Maximum Dry-Bulb {BasedOnField A3}
  98733,                                  ! Barometric Pressure {Pa}
  5.3,                                    ! Wind Speed {m/s}
  230,                                    ! Wind Direction {deg}
  0,                                      ! Sky Clearness
  0,                                      ! Rain Indicator
  0,                                      ! Snow Indicator
  21,                                     ! Day of Month
  7,                                      ! Month
  SummerDesignDay,                        ! Day Type
  0,                                      ! Daylight Saving Time Indicator
  Dewpoint,                               ! Humidity Indicating Type
  ,                                       ! Humidity Indicating Day Schedule Name
  DefaultMultipliers,                     ! Dry-Bulb Temperature Range Modifier Type
  ,                                       ! Dry-Bulb Temperature Range Modifier Schedule Name
  ASHRAETau,                              ! Solar Model Indicator
  ,                                       ! Beam Solar Day Schedule Name
  ,                                       ! Diffuse Solar Day Schedule Name
  0.465,                                  ! ASHRAE Taub {dimensionless}
  1.99;                                   ! ASHRAE Taud {dimensionless}

OS:ComponentData,
  {612d5ab0-e72c-40bf-af74-8674be1ef44c}, ! Handle
  Component Data 1,                       ! Name
  {c02337dd-966a-4c7c-9042-b63be2b759ae}, ! UUID
  {76f50f17-da49-4e79-b533-26ff97934a6f}, ! Version UUID
  1366307984,                             ! Creation Timestamp
  1366307984,                             ! Version Timestamp
  {4e11d158-623f-4816-bfea-158f85af5852}; ! Name of Object 1

