
OS:Version,
  {67f6c912-8671-4c93-a056-8b1641864988}, ! Handle
  0.9.3;                                  ! Version Identifier

OS:SizingPeriod:DesignDay,
  {e5feba56-36bf-4b49-9218-e52005e987ea}, ! Handle
  Klamath Falls Intl Ap  Uo Ann Clg .4% Condns DP=>MDB, ! Name
  23.2,                                   ! Maximum Dry-Bulb Temperature {C}
  18.6,                                   ! Daily Dry-Bulb Temperature Range {deltaC}
  14.7,                                   ! Humidity Indicating Conditions at Maximum Dry-Bulb {BasedOnField A3}
  87502,                                  ! Barometric Pressure {Pa}
  3.5,                                    ! Wind Speed {m/s}
  320,                                    ! Wind Direction {deg}
  0,                                      ! Sky Clearness
  0,                                      ! Rain Indicator
  0,                                      ! Snow Indicator
  21,                                     ! Day of Month
  7,                                      ! Month
  SummerDesignDay,                        ! Day Type
  0,                                      ! Daylight Saving Time Indicator
  Dewpoint,                               ! Humidity Indicating Type
  ,                                       ! Humidity Indicating Day Schedule Name
  DefaultMultipliers,                     ! Dry-Bulb Temperature Range Modifier Type
  ,                                       ! Dry-Bulb Temperature Range Modifier Schedule Name
  ASHRAETau,                              ! Solar Model Indicator
  ,                                       ! Beam Solar Day Schedule Name
  ,                                       ! Diffuse Solar Day Schedule Name
  0.327,                                  ! ASHRAE Taub {dimensionless}
  2.593;                                  ! ASHRAE Taud {dimensionless}

OS:ComponentData,
  {abdbfa3b-dbc9-42d9-bc9e-90afa17c9eb3}, ! Handle
  Component Data 1,                       ! Name
  {a6601bb8-3d90-4a7f-a8f4-ba4462f5f37c}, ! UUID
  {2ff927d9-aaac-4c53-951b-5d36fc5254e7}, ! Version UUID
  1366310017,                             ! Creation Timestamp
  1366310017,                             ! Version Timestamp
  {e5feba56-36bf-4b49-9218-e52005e987ea}; ! Name of Object 1

