
OS:Version,
  {6338f989-0d88-40fe-9c8f-865ec8bd7c2b}, ! Handle
  0.9.3;                                  ! Version Identifier

OS:SizingPeriod:DesignDay,
  {4468f007-0be4-4332-a853-9befd8fd401e}, ! Handle
  Antigo Lang Awos Ann Hum_n 99.6% Condns DP=>MCDB, ! Name
  -22.5,                                  ! Maximum Dry-Bulb Temperature {C}
  0,                                      ! Daily Dry-Bulb Temperature Range {deltaC}
  -29,                                    ! Humidity Indicating Conditions at Maximum Dry-Bulb {BasedOnField A3}
  95874,                                  ! Barometric Pressure {Pa}
  1.9,                                    ! Wind Speed {m/s}
  290,                                    ! Wind Direction {deg}
  0,                                      ! Sky Clearness
  0,                                      ! Rain Indicator
  0,                                      ! Snow Indicator
  21,                                     ! Day of Month
  1,                                      ! Month
  WinterDesignDay,                        ! Day Type
  0,                                      ! Daylight Saving Time Indicator
  Dewpoint,                               ! Humidity Indicating Type
  ,                                       ! Humidity Indicating Day Schedule Name
  DefaultMultipliers,                     ! Dry-Bulb Temperature Range Modifier Type
  ,                                       ! Dry-Bulb Temperature Range Modifier Schedule Name
  ASHRAEClearSky;                         ! Solar Model Indicator

