
OS:Version,
  {8e815072-fefb-4b5e-bef0-5c261b35dd4a}, ! Handle
  0.9.3;                                  ! Version Identifier

OS:SizingPeriod:DesignDay,
  {025fb64c-b701-443c-bfad-637cca284b8e}, ! Handle
  Cloquet  Awos Ann Htg Wind 99.6% Condns WS=>MCDB, ! Name
  -8.2,                                   ! Maximum Dry-Bulb Temperature {C}
  0,                                      ! Daily Dry-Bulb Temperature Range {deltaC}
  -8.2,                                   ! Humidity Indicating Conditions at Maximum Dry-Bulb {BasedOnField A3}
  96727,                                  ! Barometric Pressure {Pa}
  10.8,                                   ! Wind Speed {m/s}
  300,                                    ! Wind Direction {deg}
  0,                                      ! Sky Clearness
  0,                                      ! Rain Indicator
  0,                                      ! Snow Indicator
  21,                                     ! Day of Month
  1,                                      ! Month
  WinterDesignDay,                        ! Day Type
  0,                                      ! Daylight Saving Time Indicator
  Wetbulb,                                ! Humidity Indicating Type
  ,                                       ! Humidity Indicating Day Schedule Name
  DefaultMultipliers,                     ! Dry-Bulb Temperature Range Modifier Type
  ,                                       ! Dry-Bulb Temperature Range Modifier Schedule Name
  ASHRAEClearSky;                         ! Solar Model Indicator

OS:ComponentData,
  {dfb16767-9715-4ada-b1ba-e7cc37ee292e}, ! Handle
  Component Data 1,                       ! Name
  {82c588c6-9a28-4a34-96dd-84bbf7b884c1}, ! UUID
  {d4015d19-e0d3-4387-8de7-be65fa1182ad}, ! Version UUID
  1366308179,                             ! Creation Timestamp
  1366308179,                             ! Version Timestamp
  {025fb64c-b701-443c-bfad-637cca284b8e}; ! Name of Object 1

