
OS:Version,
  {b390f9c4-31a6-4298-9f34-e15f4edb51ac}, ! Handle
  0.9.3;                                  ! Version Identifier

OS:SizingPeriod:DesignDay,
  {ea6c8ae1-f73a-49f7-b65b-d41abb005255}, ! Handle
  Berlin Municipal Ann Clg 1% Condns DB=>MWB, ! Name
  27.8,                                   ! Maximum Dry-Bulb Temperature {C}
  13.8,                                   ! Daily Dry-Bulb Temperature Range {deltaC}
  19.4,                                   ! Humidity Indicating Conditions at Maximum Dry-Bulb {BasedOnField A3}
  97156,                                  ! Barometric Pressure {Pa}
  3,                                      ! Wind Speed {m/s}
  290,                                    ! Wind Direction {deg}
  0,                                      ! Sky Clearness
  0,                                      ! Rain Indicator
  0,                                      ! Snow Indicator
  21,                                     ! Day of Month
  7,                                      ! Month
  SummerDesignDay,                        ! Day Type
  0,                                      ! Daylight Saving Time Indicator
  Wetbulb,                                ! Humidity Indicating Type
  ,                                       ! Humidity Indicating Day Schedule Name
  DefaultMultipliers,                     ! Dry-Bulb Temperature Range Modifier Type
  ,                                       ! Dry-Bulb Temperature Range Modifier Schedule Name
  ASHRAETau,                              ! Solar Model Indicator
  ,                                       ! Beam Solar Day Schedule Name
  ,                                       ! Diffuse Solar Day Schedule Name
  0.442,                                  ! ASHRAE Taub {dimensionless}
  2.043;                                  ! ASHRAE Taud {dimensionless}

OS:ComponentData,
  {bca1b0a1-7232-4ce1-8210-566a975ab610}, ! Handle
  Component Data 1,                       ! Name
  {e244e323-cc75-424d-b647-31583371b11c}, ! UUID
  {974008b5-fe6e-4d7d-a059-f377d8a57e7b}, ! Version UUID
  1366309214,                             ! Creation Timestamp
  1366309214,                             ! Version Timestamp
  {ea6c8ae1-f73a-49f7-b65b-d41abb005255}; ! Name of Object 1

