
OS:Version,
  {6241394f-ef0d-4fea-adbc-82317a568897}, ! Handle
  0.9.3;                                  ! Version Identifier

OS:SizingPeriod:DesignDay,
  {764da46d-cf70-4013-a428-c81b1e866e2b}, ! Handle
  Joplin Municipal Ap Ann Clg 2% Condns DB=>MWB, ! Name
  33,                                     ! Maximum Dry-Bulb Temperature {C}
  10.8,                                   ! Daily Dry-Bulb Temperature Range {deltaC}
  23.8,                                   ! Humidity Indicating Conditions at Maximum Dry-Bulb {BasedOnField A3}
  97808,                                  ! Barometric Pressure {Pa}
  4.8,                                    ! Wind Speed {m/s}
  210,                                    ! Wind Direction {deg}
  0,                                      ! Sky Clearness
  0,                                      ! Rain Indicator
  0,                                      ! Snow Indicator
  21,                                     ! Day of Month
  7,                                      ! Month
  SummerDesignDay,                        ! Day Type
  0,                                      ! Daylight Saving Time Indicator
  Wetbulb,                                ! Humidity Indicating Type
  ,                                       ! Humidity Indicating Day Schedule Name
  DefaultMultipliers,                     ! Dry-Bulb Temperature Range Modifier Type
  ,                                       ! Dry-Bulb Temperature Range Modifier Schedule Name
  ASHRAETau,                              ! Solar Model Indicator
  ,                                       ! Beam Solar Day Schedule Name
  ,                                       ! Diffuse Solar Day Schedule Name
  0.446,                                  ! ASHRAE Taub {dimensionless}
  2.122;                                  ! ASHRAE Taud {dimensionless}

OS:ComponentData,
  {e95e6b16-5bc4-454f-9969-17d72fadf099}, ! Handle
  Component Data 1,                       ! Name
  {bdb57afc-0a9d-47ed-8985-fd6fb2d4f078}, ! UUID
  {6021cdd7-5906-4101-b871-2fe7ce78659d}, ! Version UUID
  1366308508,                             ! Creation Timestamp
  1366308508,                             ! Version Timestamp
  {764da46d-cf70-4013-a428-c81b1e866e2b}; ! Name of Object 1

