
OS:Version,
  {86203647-82da-42aa-9282-0875040c362f}, ! Handle
  0.9.3;                                  ! Version Identifier

OS:SizingPeriod:DesignDay,
  {da0e94f9-cbed-467e-aed3-26d84d0f48ab}, ! Handle
  Green Bay Ann Clg 2% Condns Enth=>MDB,  ! Name
  26.4,                                   ! Maximum Dry-Bulb Temperature {C}
  11.3,                                   ! Daily Dry-Bulb Temperature Range {deltaC}
  67100,                                  ! Humidity Indicating Conditions at Maximum Dry-Bulb {BasedOnField A3}
  98780,                                  ! Barometric Pressure {Pa}
  5.1,                                    ! Wind Speed {m/s}
  200,                                    ! Wind Direction {deg}
  0,                                      ! Sky Clearness
  0,                                      ! Rain Indicator
  0,                                      ! Snow Indicator
  21,                                     ! Day of Month
  7,                                      ! Month
  SummerDesignDay,                        ! Day Type
  0,                                      ! Daylight Saving Time Indicator
  Enthalpy,                               ! Humidity Indicating Type
  ,                                       ! Humidity Indicating Day Schedule Name
  DefaultMultipliers,                     ! Dry-Bulb Temperature Range Modifier Type
  ,                                       ! Dry-Bulb Temperature Range Modifier Schedule Name
  ASHRAETau,                              ! Solar Model Indicator
  ,                                       ! Beam Solar Day Schedule Name
  ,                                       ! Diffuse Solar Day Schedule Name
  0.432,                                  ! ASHRAE Taub {dimensionless}
  2.118;                                  ! ASHRAE Taud {dimensionless}

OS:ComponentData,
  {a87dad71-56b5-4897-aaac-ce14ad10cbf3}, ! Handle
  Component Data 1,                       ! Name
  {0deafb73-6f8d-4a3a-a305-8d3c0bfc1a1a}, ! UUID
  {8bd2fda3-ce78-4fe9-97e4-19e165a8d5e8}, ! Version UUID
  1366311486,                             ! Creation Timestamp
  1366311486,                             ! Version Timestamp
  {da0e94f9-cbed-467e-aed3-26d84d0f48ab}; ! Name of Object 1

