
OS:Version,
  {089946a8-ddea-4344-b8fb-782bdfbf1c0b}, ! Handle
  0.9.3;                                  ! Version Identifier

OS:SizingPeriod:DesignDay,
  {8a5c6736-0862-4aa1-96a0-1ca03de72ffb}, ! Handle
  Lincoln Municipal Arpt Ann Htg 99% Condns DB, ! Name
  -17.6,                                  ! Maximum Dry-Bulb Temperature {C}
  0,                                      ! Daily Dry-Bulb Temperature Range {deltaC}
  -17.6,                                  ! Humidity Indicating Conditions at Maximum Dry-Bulb {BasedOnField A3}
  97109,                                  ! Barometric Pressure {Pa}
  3.4,                                    ! Wind Speed {m/s}
  350,                                    ! Wind Direction {deg}
  0,                                      ! Sky Clearness
  0,                                      ! Rain Indicator
  0,                                      ! Snow Indicator
  21,                                     ! Day of Month
  1,                                      ! Month
  WinterDesignDay,                        ! Day Type
  0,                                      ! Daylight Saving Time Indicator
  Wetbulb,                                ! Humidity Indicating Type
  ,                                       ! Humidity Indicating Day Schedule Name
  DefaultMultipliers,                     ! Dry-Bulb Temperature Range Modifier Type
  ,                                       ! Dry-Bulb Temperature Range Modifier Schedule Name
  ASHRAEClearSky;                         ! Solar Model Indicator

OS:ComponentData,
  {514474bc-ab96-4071-97bb-dbae2563f039}, ! Handle
  Component Data 1,                       ! Name
  {3ba2089d-d765-4a46-8f1a-6d8e713d8723}, ! UUID
  {cd301500-6114-4c5a-9ffe-2aa0c1d131c0}, ! Version UUID
  1366309138,                             ! Creation Timestamp
  1366309138,                             ! Version Timestamp
  {8a5c6736-0862-4aa1-96a0-1ca03de72ffb}; ! Name of Object 1

