
OS:Version,
  {a31e373e-7fca-4dea-ba82-dec63ef5d8ad}, ! Handle
  0.9.3;                                  ! Version Identifier

OS:SizingPeriod:DesignDay,
  {e19a8855-cbe6-4f02-97ca-499e02d70c5a}, ! Handle
  Albuquerque Intl Arpt  Isis Ann Clg 2% Condns DP=>MDB, ! Name
  20.8,                                   ! Maximum Dry-Bulb Temperature {C}
  13.5,                                   ! Daily Dry-Bulb Temperature Range {deltaC}
  14.9,                                   ! Humidity Indicating Conditions at Maximum Dry-Bulb {BasedOnField A3}
  83328,                                  ! Barometric Pressure {Pa}
  4.4,                                    ! Wind Speed {m/s}
  220,                                    ! Wind Direction {deg}
  0,                                      ! Sky Clearness
  0,                                      ! Rain Indicator
  0,                                      ! Snow Indicator
  21,                                     ! Day of Month
  7,                                      ! Month
  SummerDesignDay,                        ! Day Type
  0,                                      ! Daylight Saving Time Indicator
  Dewpoint,                               ! Humidity Indicating Type
  ,                                       ! Humidity Indicating Day Schedule Name
  DefaultMultipliers,                     ! Dry-Bulb Temperature Range Modifier Type
  ,                                       ! Dry-Bulb Temperature Range Modifier Schedule Name
  ASHRAETau,                              ! Solar Model Indicator
  ,                                       ! Beam Solar Day Schedule Name
  ,                                       ! Diffuse Solar Day Schedule Name
  0.463,                                  ! ASHRAE Taub {dimensionless}
  1.887;                                  ! ASHRAE Taud {dimensionless}

OS:ComponentData,
  {27a06891-19d8-49ec-b638-6947f8a510b6}, ! Handle
  Component Data 1,                       ! Name
  {2ac9a457-84ed-4574-b18c-fac289700a31}, ! UUID
  {dcea2113-e26c-4c5e-b9da-998e6d5ba0a5}, ! Version UUID
  1366309371,                             ! Creation Timestamp
  1366309371,                             ! Version Timestamp
  {e19a8855-cbe6-4f02-97ca-499e02d70c5a}; ! Name of Object 1

