
OS:Version,
  {9cf605ea-eb11-46ac-960a-b625a3ec40af}, ! Handle
  0.9.3;                                  ! Version Identifier

OS:SizingPeriod:DesignDay,
  {fd84d574-cce4-4876-8876-5ca1bf7a9467}, ! Handle
  Boise Ann Htg 99% Condns DB,            ! Name
  -11.9,                                  ! Maximum Dry-Bulb Temperature {C}
  0,                                      ! Daily Dry-Bulb Temperature Range {deltaC}
  -11.9,                                  ! Humidity Indicating Conditions at Maximum Dry-Bulb {BasedOnField A3}
  91257,                                  ! Barometric Pressure {Pa}
  2.3,                                    ! Wind Speed {m/s}
  120,                                    ! Wind Direction {deg}
  0,                                      ! Sky Clearness
  0,                                      ! Rain Indicator
  0,                                      ! Snow Indicator
  21,                                     ! Day of Month
  12,                                     ! Month
  WinterDesignDay,                        ! Day Type
  0,                                      ! Daylight Saving Time Indicator
  Wetbulb,                                ! Humidity Indicating Type
  ,                                       ! Humidity Indicating Day Schedule Name
  DefaultMultipliers,                     ! Dry-Bulb Temperature Range Modifier Type
  ,                                       ! Dry-Bulb Temperature Range Modifier Schedule Name
  ASHRAEClearSky;                         ! Solar Model Indicator

OS:ComponentData,
  {0f3aca45-ca40-4251-b58e-e1f0f854f59b}, ! Handle
  Component Data 1,                       ! Name
  {3b01cb8c-f95f-48d6-b6fe-3e546a880ae8}, ! UUID
  {defeebf9-a9aa-4111-882a-613acacfefe2}, ! Version UUID
  1366307264,                             ! Creation Timestamp
  1366307264,                             ! Version Timestamp
  {fd84d574-cce4-4876-8876-5ca1bf7a9467}; ! Name of Object 1

