
OS:Version,
  {12bc41f9-247b-4d98-b36e-3a52e813cd6c}, ! Handle
  0.9.3;                                  ! Version Identifier

OS:SizingPeriod:DesignDay,
  {802675a7-f479-42a1-8afe-a0e68a9952be}, ! Handle
  Bettles Field Ann Clg .4% Condns WB=>MDB, ! Name
  23.8,                                   ! Maximum Dry-Bulb Temperature {C}
  10.6,                                   ! Daily Dry-Bulb Temperature Range {deltaC}
  16.8,                                   ! Humidity Indicating Conditions at Maximum Dry-Bulb {BasedOnField A3}
  98992,                                  ! Barometric Pressure {Pa}
  3.3,                                    ! Wind Speed {m/s}
  220,                                    ! Wind Direction {deg}
  0,                                      ! Sky Clearness
  0,                                      ! Rain Indicator
  0,                                      ! Snow Indicator
  21,                                     ! Day of Month
  7,                                      ! Month
  SummerDesignDay,                        ! Day Type
  0,                                      ! Daylight Saving Time Indicator
  Wetbulb,                                ! Humidity Indicating Type
  ,                                       ! Humidity Indicating Day Schedule Name
  DefaultMultipliers,                     ! Dry-Bulb Temperature Range Modifier Type
  ,                                       ! Dry-Bulb Temperature Range Modifier Schedule Name
  ASHRAETau,                              ! Solar Model Indicator
  ,                                       ! Beam Solar Day Schedule Name
  ,                                       ! Diffuse Solar Day Schedule Name
  0.389,                                  ! ASHRAE Taub {dimensionless}
  2.131;                                  ! ASHRAE Taud {dimensionless}

OS:ComponentData,
  {599b2235-f563-4733-86ea-83aef12391ba}, ! Handle
  Component Data 1,                       ! Name
  {88ff04db-b813-472b-883c-0fe25f6adb3f}, ! UUID
  {6fbe05f1-ca5f-4538-b566-7ee70332df2d}, ! Version UUID
  1366304767,                             ! Creation Timestamp
  1366304767,                             ! Version Timestamp
  {802675a7-f479-42a1-8afe-a0e68a9952be}; ! Name of Object 1

