
OS:Version,
  {cffeec5c-604e-4a88-b926-e61f2e882c83}, ! Handle
  0.9.3;                                  ! Version Identifier

OS:SizingPeriod:DesignDay,
  {bcdce3b5-ef2a-48ec-b5c9-4e5595c2dccd}, ! Handle
  CONCORD Ann Clg 2% Condns Enth=>MDB,    ! Name
  26.5,                                   ! Maximum Dry-Bulb Temperature {C}
  12.8,                                   ! Daily Dry-Bulb Temperature Range {deltaC}
  64200,                                  ! Humidity Indicating Conditions at Maximum Dry-Bulb {BasedOnField A3}
  100070,                                 ! Barometric Pressure {Pa}
  4.4,                                    ! Wind Speed {m/s}
  230,                                    ! Wind Direction {deg}
  0,                                      ! Sky Clearness
  0,                                      ! Rain Indicator
  0,                                      ! Snow Indicator
  21,                                     ! Day of Month
  7,                                      ! Month
  SummerDesignDay,                        ! Day Type
  0,                                      ! Daylight Saving Time Indicator
  Enthalpy,                               ! Humidity Indicating Type
  ,                                       ! Humidity Indicating Day Schedule Name
  DefaultMultipliers,                     ! Dry-Bulb Temperature Range Modifier Type
  ,                                       ! Dry-Bulb Temperature Range Modifier Schedule Name
  ASHRAETau,                              ! Solar Model Indicator
  ,                                       ! Beam Solar Day Schedule Name
  ,                                       ! Diffuse Solar Day Schedule Name
  0.459,                                  ! ASHRAE Taub {dimensionless}
  2.014;                                  ! ASHRAE Taud {dimensionless}

OS:ComponentData,
  {f4f013fa-87f7-4a55-892a-e31c866d7616}, ! Handle
  Component Data 1,                       ! Name
  {07d0b539-5519-4358-abde-8b77b8911a67}, ! UUID
  {e5791ee0-2de5-439b-b424-2ab5af807bac}, ! Version UUID
  1366309222,                             ! Creation Timestamp
  1366309222,                             ! Version Timestamp
  {bcdce3b5-ef2a-48ec-b5c9-4e5595c2dccd}; ! Name of Object 1

