
OS:Version,
  {421de03b-f865-4257-bd9b-aacee792ab8f}, ! Handle
  0.9.3;                                  ! Version Identifier

OS:SizingPeriod:DesignDay,
  {6dd0e61b-a68d-45b4-8635-4ce8df53d857}, ! Handle
  Dubois Faa Ap Ann Clg 2% Condns Enth=>MDB, ! Name
  25,                                     ! Maximum Dry-Bulb Temperature {C}
  10.4,                                   ! Daily Dry-Bulb Temperature Range {deltaC}
  63200,                                  ! Humidity Indicating Conditions at Maximum Dry-Bulb {BasedOnField A3}
  94856,                                  ! Barometric Pressure {Pa}
  4.4,                                    ! Wind Speed {m/s}
  250,                                    ! Wind Direction {deg}
  0,                                      ! Sky Clearness
  0,                                      ! Rain Indicator
  0,                                      ! Snow Indicator
  21,                                     ! Day of Month
  7,                                      ! Month
  SummerDesignDay,                        ! Day Type
  0,                                      ! Daylight Saving Time Indicator
  Enthalpy,                               ! Humidity Indicating Type
  ,                                       ! Humidity Indicating Day Schedule Name
  DefaultMultipliers,                     ! Dry-Bulb Temperature Range Modifier Type
  ,                                       ! Dry-Bulb Temperature Range Modifier Schedule Name
  ASHRAETau,                              ! Solar Model Indicator
  ,                                       ! Beam Solar Day Schedule Name
  ,                                       ! Diffuse Solar Day Schedule Name
  0.441,                                  ! ASHRAE Taub {dimensionless}
  2.051;                                  ! ASHRAE Taud {dimensionless}

OS:ComponentData,
  {1f53cc5a-1157-4f04-8e52-0025b5ee5028}, ! Handle
  Component Data 1,                       ! Name
  {3ccc8f2b-90ac-4258-afac-3303ed21db7a}, ! UUID
  {3b40ab07-5af7-4bfc-a883-5cb72c056317}, ! Version UUID
  1366310161,                             ! Creation Timestamp
  1366310161,                             ! Version Timestamp
  {6dd0e61b-a68d-45b4-8635-4ce8df53d857}; ! Name of Object 1

