
OS:Version,
  {2a2186c1-bf2f-4856-83b3-cbe7ce7d1bbe}, ! Handle
  0.9.3;                                  ! Version Identifier

OS:SizingPeriod:DesignDay,
  {1b1ae239-98b0-4161-88bd-823faa4b264b}, ! Handle
  Anchorage Intl Ap Ann Htg Wind 99% Condns WS=>MCDB, ! Name
  -5.6,                                   ! Maximum Dry-Bulb Temperature {C}
  0,                                      ! Daily Dry-Bulb Temperature Range {deltaC}
  -5.6,                                   ! Humidity Indicating Conditions at Maximum Dry-Bulb {BasedOnField A3}
  100905,                                 ! Barometric Pressure {Pa}
  9.3,                                    ! Wind Speed {m/s}
  350,                                    ! Wind Direction {deg}
  0,                                      ! Sky Clearness
  0,                                      ! Rain Indicator
  0,                                      ! Snow Indicator
  21,                                     ! Day of Month
  1,                                      ! Month
  WinterDesignDay,                        ! Day Type
  0,                                      ! Daylight Saving Time Indicator
  Wetbulb,                                ! Humidity Indicating Type
  ,                                       ! Humidity Indicating Day Schedule Name
  DefaultMultipliers,                     ! Dry-Bulb Temperature Range Modifier Type
  ,                                       ! Dry-Bulb Temperature Range Modifier Schedule Name
  ASHRAEClearSky;                         ! Solar Model Indicator

OS:ComponentData,
  {97e3bc69-6bb1-440d-870b-8bf4e9cd832a}, ! Handle
  Component Data 1,                       ! Name
  {b3a79791-aa73-4abe-9874-a7b97c69bc41}, ! UUID
  {0060ddee-2d42-4885-9796-9841084a9e15}, ! Version UUID
  1366304708,                             ! Creation Timestamp
  1366304708,                             ! Version Timestamp
  {1b1ae239-98b0-4161-88bd-823faa4b264b}; ! Name of Object 1

