
OS:Version,
  {7908c93b-df48-4de1-a400-c6eb6a9c789b}, ! Handle
  0.9.3;                                  ! Version Identifier

OS:SizingPeriod:DesignDay,
  {c2ab9c3b-aa15-4b05-9eb7-6c046d3f7d1c}, ! Handle
  Blythe Riverside Co Arpt Ann Clg .4% Condns Enth=>MDB, ! Name
  37.6,                                   ! Maximum Dry-Bulb Temperature {C}
  14.6,                                   ! Daily Dry-Bulb Temperature Range {deltaC}
  80400,                                  ! Humidity Indicating Conditions at Maximum Dry-Bulb {BasedOnField A3}
  99904,                                  ! Barometric Pressure {Pa}
  4.8,                                    ! Wind Speed {m/s}
  170,                                    ! Wind Direction {deg}
  0,                                      ! Sky Clearness
  0,                                      ! Rain Indicator
  0,                                      ! Snow Indicator
  21,                                     ! Day of Month
  7,                                      ! Month
  SummerDesignDay,                        ! Day Type
  0,                                      ! Daylight Saving Time Indicator
  Enthalpy,                               ! Humidity Indicating Type
  ,                                       ! Humidity Indicating Day Schedule Name
  DefaultMultipliers,                     ! Dry-Bulb Temperature Range Modifier Type
  ,                                       ! Dry-Bulb Temperature Range Modifier Schedule Name
  ASHRAETau,                              ! Solar Model Indicator
  ,                                       ! Beam Solar Day Schedule Name
  ,                                       ! Diffuse Solar Day Schedule Name
  0.56,                                   ! ASHRAE Taub {dimensionless}
  1.707;                                  ! ASHRAE Taud {dimensionless}

OS:ComponentData,
  {15f3ee55-930a-4b9d-9d6c-5c30572fe71f}, ! Handle
  Component Data 1,                       ! Name
  {4fc9ec1d-f1e4-4e80-bf70-895750ad6528}, ! UUID
  {4b5d374d-48ad-4064-9f90-81233864ca91}, ! Version UUID
  1366306390,                             ! Creation Timestamp
  1366306390,                             ! Version Timestamp
  {c2ab9c3b-aa15-4b05-9eb7-6c046d3f7d1c}; ! Name of Object 1

