
OS:Version,
  {84328e9c-bb81-4b3d-8d7c-5f0740c89228}, ! Handle
  0.9.3;                                  ! Version Identifier

OS:SizingPeriod:DesignDay,
  {2392b1c7-d37f-4a45-ab10-dc0c4b0da910}, ! Handle
  KAHULUI Ann Htg Wind 99.6% Condns WS=>MCDB, ! Name
  24.5,                                   ! Maximum Dry-Bulb Temperature {C}
  0,                                      ! Daily Dry-Bulb Temperature Range {deltaC}
  24.5,                                   ! Humidity Indicating Conditions at Maximum Dry-Bulb {BasedOnField A3}
  101145,                                 ! Barometric Pressure {Pa}
  12.2,                                   ! Wind Speed {m/s}
  150,                                    ! Wind Direction {deg}
  0,                                      ! Sky Clearness
  0,                                      ! Rain Indicator
  0,                                      ! Snow Indicator
  21,                                     ! Day of Month
  2,                                      ! Month
  WinterDesignDay,                        ! Day Type
  0,                                      ! Daylight Saving Time Indicator
  Wetbulb,                                ! Humidity Indicating Type
  ,                                       ! Humidity Indicating Day Schedule Name
  DefaultMultipliers,                     ! Dry-Bulb Temperature Range Modifier Type
  ,                                       ! Dry-Bulb Temperature Range Modifier Schedule Name
  ASHRAEClearSky;                         ! Solar Model Indicator

OS:ComponentData,
  {3557c5f4-89d2-4ab4-a186-893ee7575d8e}, ! Handle
  Component Data 1,                       ! Name
  {7e9db609-8bd9-45b6-acd8-af56659d1587}, ! UUID
  {82073543-7777-4155-843f-ea90592dfcd5}, ! Version UUID
  1366307096,                             ! Creation Timestamp
  1366307096,                             ! Version Timestamp
  {2392b1c7-d37f-4a45-ab10-dc0c4b0da910}; ! Name of Object 1

