
OS:Version,
  {0b1f6db8-09fe-4bfd-afb9-39650120bf21}, ! Handle
  0.9.3;                                  ! Version Identifier

OS:SizingPeriod:DesignDay,
  {d3fb8ab7-bec1-481e-8a22-b98718ab1c60}, ! Handle
  Fort Worth Nas Ann Clg 2% Condns DB=>MWB, ! Name
  35.7,                                   ! Maximum Dry-Bulb Temperature {C}
  10.7,                                   ! Daily Dry-Bulb Temperature Range {deltaC}
  24,                                     ! Humidity Indicating Conditions at Maximum Dry-Bulb {BasedOnField A3}
  99122,                                  ! Barometric Pressure {Pa}
  4,                                      ! Wind Speed {m/s}
  160,                                    ! Wind Direction {deg}
  0,                                      ! Sky Clearness
  0,                                      ! Rain Indicator
  0,                                      ! Snow Indicator
  21,                                     ! Day of Month
  7,                                      ! Month
  SummerDesignDay,                        ! Day Type
  0,                                      ! Daylight Saving Time Indicator
  Wetbulb,                                ! Humidity Indicating Type
  ,                                       ! Humidity Indicating Day Schedule Name
  DefaultMultipliers,                     ! Dry-Bulb Temperature Range Modifier Type
  ,                                       ! Dry-Bulb Temperature Range Modifier Schedule Name
  ASHRAETau,                              ! Solar Model Indicator
  ,                                       ! Beam Solar Day Schedule Name
  ,                                       ! Diffuse Solar Day Schedule Name
  0.463,                                  ! ASHRAE Taub {dimensionless}
  2.081;                                  ! ASHRAE Taud {dimensionless}

OS:ComponentData,
  {5a023cc3-d080-47c1-ae3f-4025a53b3ae9}, ! Handle
  Component Data 1,                       ! Name
  {b1de4326-0363-45e0-b548-e2207c4bc9a5}, ! UUID
  {909d601a-d975-49e3-91b6-3c145b8187e9}, ! Version UUID
  1366310714,                             ! Creation Timestamp
  1366310714,                             ! Version Timestamp
  {d3fb8ab7-bec1-481e-8a22-b98718ab1c60}; ! Name of Object 1

