
OS:Version,
  {f5f3e67b-d3f6-48f4-930e-edfaccd3f976}, ! Handle
  0.9.3;                                  ! Version Identifier

OS:SizingPeriod:DesignDay,
  {e80ea2df-cbe8-4044-87ee-8badff132e8b}, ! Handle
  Cambridge Muni Ann Htg Wind 99.6% Condns WS=>MCDB, ! Name
  -8.3,                                   ! Maximum Dry-Bulb Temperature {C}
  0,                                      ! Daily Dry-Bulb Temperature Range {deltaC}
  -8.3,                                   ! Humidity Indicating Conditions at Maximum Dry-Bulb {BasedOnField A3}
  97924,                                  ! Barometric Pressure {Pa}
  8.5,                                    ! Wind Speed {m/s}
  270,                                    ! Wind Direction {deg}
  0,                                      ! Sky Clearness
  0,                                      ! Rain Indicator
  0,                                      ! Snow Indicator
  21,                                     ! Day of Month
  1,                                      ! Month
  WinterDesignDay,                        ! Day Type
  0,                                      ! Daylight Saving Time Indicator
  Wetbulb,                                ! Humidity Indicating Type
  ,                                       ! Humidity Indicating Day Schedule Name
  DefaultMultipliers,                     ! Dry-Bulb Temperature Range Modifier Type
  ,                                       ! Dry-Bulb Temperature Range Modifier Schedule Name
  ASHRAEClearSky;                         ! Solar Model Indicator

OS:ComponentData,
  {27017d66-cf02-4072-89b4-5edc769cf507}, ! Handle
  Component Data 1,                       ! Name
  {4a64bbe9-bd13-4d62-aa6e-35bdb267ca01}, ! UUID
  {1f0b718f-9e63-4056-872a-97d0a2e896a7}, ! Version UUID
  1366308174,                             ! Creation Timestamp
  1366308174,                             ! Version Timestamp
  {e80ea2df-cbe8-4044-87ee-8badff132e8b}; ! Name of Object 1

