
OS:Version,
  {8cd0eabc-afff-4345-8835-5dce7d67b30c}, ! Handle
  0.9.3;                                  ! Version Identifier

OS:SizingPeriod:DesignDay,
  {11fc4164-6c9b-48f0-9eaa-e8559c06d2b6}, ! Handle
  CHICAGO Ann Htg 99.6% Condns DB,        ! Name
  -20,                                    ! Maximum Dry-Bulb Temperature {C}
  0,                                      ! Daily Dry-Bulb Temperature Range {deltaC}
  -20,                                    ! Humidity Indicating Conditions at Maximum Dry-Bulb {BasedOnField A3}
  99063,                                  ! Barometric Pressure {Pa}
  4.9,                                    ! Wind Speed {m/s}
  270,                                    ! Wind Direction {deg}
  0,                                      ! Sky Clearness
  0,                                      ! Rain Indicator
  0,                                      ! Snow Indicator
  21,                                     ! Day of Month
  1,                                      ! Month
  WinterDesignDay,                        ! Day Type
  0,                                      ! Daylight Saving Time Indicator
  Wetbulb,                                ! Humidity Indicating Type
  ,                                       ! Humidity Indicating Day Schedule Name
  DefaultMultipliers,                     ! Dry-Bulb Temperature Range Modifier Type
  ,                                       ! Dry-Bulb Temperature Range Modifier Schedule Name
  ASHRAEClearSky;                         ! Solar Model Indicator

OS:ComponentData,
  {7c73abce-370a-41cd-973c-a461d1ebfcba}, ! Handle
  Component Data 1,                       ! Name
  {2943a0fa-0313-4451-90ab-df08c5640ec5}, ! UUID
  {2623282a-043e-48a8-af8c-a3a7647ea231}, ! Version UUID
  1366307346,                             ! Creation Timestamp
  1366307346,                             ! Version Timestamp
  {11fc4164-6c9b-48f0-9eaa-e8559c06d2b6}; ! Name of Object 1

