
OS:Version,
  {07fa21a2-b650-4a36-8e43-e256764e8e31}, ! Handle
  0.9.3;                                  ! Version Identifier

OS:SizingPeriod:DesignDay,
  {666cd027-690b-49d5-b5fe-3991d931f049}, ! Handle
  Glens Falls Ap Ann Hum_n 99% Condns DP=>MCDB, ! Name
  -18.3,                                  ! Maximum Dry-Bulb Temperature {C}
  0,                                      ! Daily Dry-Bulb Temperature Range {deltaC}
  -24.7,                                  ! Humidity Indicating Conditions at Maximum Dry-Bulb {BasedOnField A3}
  100153,                                 ! Barometric Pressure {Pa}
  0.9,                                    ! Wind Speed {m/s}
  320,                                    ! Wind Direction {deg}
  0,                                      ! Sky Clearness
  0,                                      ! Rain Indicator
  0,                                      ! Snow Indicator
  21,                                     ! Day of Month
  1,                                      ! Month
  WinterDesignDay,                        ! Day Type
  0,                                      ! Daylight Saving Time Indicator
  Dewpoint,                               ! Humidity Indicating Type
  ,                                       ! Humidity Indicating Day Schedule Name
  DefaultMultipliers,                     ! Dry-Bulb Temperature Range Modifier Type
  ,                                       ! Dry-Bulb Temperature Range Modifier Schedule Name
  ASHRAEClearSky;                         ! Solar Model Indicator

OS:ComponentData,
  {cb2798a9-28ae-4e6b-9355-a59cd3cf5ae8}, ! Handle
  Component Data 1,                       ! Name
  {9d407e6c-de4e-4ce5-8b1a-bed03291760b}, ! UUID
  {dd3cfa0c-1f35-48f7-9bd9-aa0c7a8a6837}, ! Version UUID
  1366309626,                             ! Creation Timestamp
  1366309626,                             ! Version Timestamp
  {666cd027-690b-49d5-b5fe-3991d931f049}; ! Name of Object 1

