
OS:Version,
  {4f3e8593-6bfd-4637-bd87-87b41a76b0d9}, ! Handle
  0.9.3;                                  ! Version Identifier

OS:SizingPeriod:DesignDay,
  {b6c6f2c0-242c-4501-9e43-884070234d92}, ! Handle
  Bismarck Ann Hum_n 99.6% Condns DP=>MCDB, ! Name
  -28.5,                                  ! Maximum Dry-Bulb Temperature {C}
  0,                                      ! Daily Dry-Bulb Temperature Range {deltaC}
  -32.6,                                  ! Humidity Indicating Conditions at Maximum Dry-Bulb {BasedOnField A3}
  95392,                                  ! Barometric Pressure {Pa}
  3.7,                                    ! Wind Speed {m/s}
  320,                                    ! Wind Direction {deg}
  0,                                      ! Sky Clearness
  0,                                      ! Rain Indicator
  0,                                      ! Snow Indicator
  21,                                     ! Day of Month
  1,                                      ! Month
  WinterDesignDay,                        ! Day Type
  0,                                      ! Daylight Saving Time Indicator
  Dewpoint,                               ! Humidity Indicating Type
  ,                                       ! Humidity Indicating Day Schedule Name
  DefaultMultipliers,                     ! Dry-Bulb Temperature Range Modifier Type
  ,                                       ! Dry-Bulb Temperature Range Modifier Schedule Name
  ASHRAEClearSky;                         ! Solar Model Indicator

OS:ComponentData,
  {af17b589-c1c2-4205-9255-e15d8e8f63b5}, ! Handle
  Component Data 1,                       ! Name
  {1d34a6b8-c2f3-481a-93bb-7bc2ddebeaf1}, ! UUID
  {226e97e7-b145-49c0-ac3b-2ba502b89bd4}, ! Version UUID
  1366309002,                             ! Creation Timestamp
  1366309002,                             ! Version Timestamp
  {b6c6f2c0-242c-4501-9e43-884070234d92}; ! Name of Object 1

