
OS:Version,
  {ba02d51a-5e07-4507-894f-83d2c0ea9282}, ! Handle
  0.9.3;                                  ! Version Identifier

OS:SizingPeriod:DesignDay,
  {158d74d4-bfee-4e87-b476-3e6b91b20175}, ! Handle
  Fergus Falls Awos Ann Clg .4% Condns DB=>MWB, ! Name
  32.2,                                   ! Maximum Dry-Bulb Temperature {C}
  11.6,                                   ! Daily Dry-Bulb Temperature Range {deltaC}
  22.4,                                   ! Humidity Indicating Conditions at Maximum Dry-Bulb {BasedOnField A3}
  97063,                                  ! Barometric Pressure {Pa}
  6.2,                                    ! Wind Speed {m/s}
  170,                                    ! Wind Direction {deg}
  0,                                      ! Sky Clearness
  0,                                      ! Rain Indicator
  0,                                      ! Snow Indicator
  21,                                     ! Day of Month
  7,                                      ! Month
  SummerDesignDay,                        ! Day Type
  0,                                      ! Daylight Saving Time Indicator
  Wetbulb,                                ! Humidity Indicating Type
  ,                                       ! Humidity Indicating Day Schedule Name
  DefaultMultipliers,                     ! Dry-Bulb Temperature Range Modifier Type
  ,                                       ! Dry-Bulb Temperature Range Modifier Schedule Name
  ASHRAETau,                              ! Solar Model Indicator
  ,                                       ! Beam Solar Day Schedule Name
  ,                                       ! Diffuse Solar Day Schedule Name
  0.393,                                  ! ASHRAE Taub {dimensionless}
  2.26;                                   ! ASHRAE Taud {dimensionless}

OS:ComponentData,
  {6cd56757-3dde-4073-b3ab-3455cdb3439c}, ! Handle
  Component Data 1,                       ! Name
  {ab24097a-dfe1-4052-8546-867567108f08}, ! UUID
  {5bd6c159-62f8-4225-8d46-e6279392aae4}, ! Version UUID
  1366308233,                             ! Creation Timestamp
  1366308233,                             ! Version Timestamp
  {158d74d4-bfee-4e87-b476-3e6b91b20175}; ! Name of Object 1

