
OS:Version,
  {f0d9856c-c6c4-4a28-9539-702dad048567}, ! Handle
  0.9.3;                                  ! Version Identifier

OS:SizingPeriod:DesignDay,
  {7beecb25-621f-4096-b2c6-89775cd71042}, ! Handle
  Hobart Municipal Ap Ann Clg 1% Condns WB=>MDB, ! Name
  32.5,                                   ! Maximum Dry-Bulb Temperature {C}
  13,                                     ! Daily Dry-Bulb Temperature Range {deltaC}
  24.2,                                   ! Humidity Indicating Conditions at Maximum Dry-Bulb {BasedOnField A3}
  95713,                                  ! Barometric Pressure {Pa}
  6.3,                                    ! Wind Speed {m/s}
  170,                                    ! Wind Direction {deg}
  0,                                      ! Sky Clearness
  0,                                      ! Rain Indicator
  0,                                      ! Snow Indicator
  21,                                     ! Day of Month
  7,                                      ! Month
  SummerDesignDay,                        ! Day Type
  0,                                      ! Daylight Saving Time Indicator
  Wetbulb,                                ! Humidity Indicating Type
  ,                                       ! Humidity Indicating Day Schedule Name
  DefaultMultipliers,                     ! Dry-Bulb Temperature Range Modifier Type
  ,                                       ! Dry-Bulb Temperature Range Modifier Schedule Name
  ASHRAETau,                              ! Solar Model Indicator
  ,                                       ! Beam Solar Day Schedule Name
  ,                                       ! Diffuse Solar Day Schedule Name
  0.417,                                  ! ASHRAE Taub {dimensionless}
  2.22;                                   ! ASHRAE Taud {dimensionless}

OS:ComponentData,
  {7cb2decb-e9a2-426f-970e-074bb5e446f8}, ! Handle
  Component Data 1,                       ! Name
  {4d124826-af0a-4e47-9ae8-2ccc848d6c64}, ! UUID
  {b63988ff-62ac-4d49-a06f-77ab50cb1962}, ! Version UUID
  1366309898,                             ! Creation Timestamp
  1366309898,                             ! Version Timestamp
  {7beecb25-621f-4096-b2c6-89775cd71042}; ! Name of Object 1

