
OS:Version,
  {25536cc9-da40-41f9-85f1-1b69fbcc6cfe}, ! Handle
  0.9.3;                                  ! Version Identifier

OS:SizingPeriod:DesignDay,
  {c04bb258-9ea1-4fb1-8f61-af855715c365}, ! Handle
  Hancock Houghton Co Ap Ann Clg 2% Condns WB=>MDB, ! Name
  24.2,                                   ! Maximum Dry-Bulb Temperature {C}
  10.5,                                   ! Daily Dry-Bulb Temperature Range {deltaC}
  20.2,                                   ! Humidity Indicating Conditions at Maximum Dry-Bulb {BasedOnField A3}
  97458,                                  ! Barometric Pressure {Pa}
  4.7,                                    ! Wind Speed {m/s}
  270,                                    ! Wind Direction {deg}
  0,                                      ! Sky Clearness
  0,                                      ! Rain Indicator
  0,                                      ! Snow Indicator
  21,                                     ! Day of Month
  7,                                      ! Month
  SummerDesignDay,                        ! Day Type
  0,                                      ! Daylight Saving Time Indicator
  Wetbulb,                                ! Humidity Indicating Type
  ,                                       ! Humidity Indicating Day Schedule Name
  DefaultMultipliers,                     ! Dry-Bulb Temperature Range Modifier Type
  ,                                       ! Dry-Bulb Temperature Range Modifier Schedule Name
  ASHRAETau,                              ! Solar Model Indicator
  ,                                       ! Beam Solar Day Schedule Name
  ,                                       ! Diffuse Solar Day Schedule Name
  0.413,                                  ! ASHRAE Taub {dimensionless}
  2.179;                                  ! ASHRAE Taud {dimensionless}

OS:ComponentData,
  {d9996649-2993-4c4f-8dcb-e22f7583deba}, ! Handle
  Component Data 1,                       ! Name
  {8de8639c-e74f-4876-8b48-db8c9357b95b}, ! UUID
  {9b13eae2-4b12-4dfd-a84d-129458e0c23b}, ! Version UUID
  1366308022,                             ! Creation Timestamp
  1366308022,                             ! Version Timestamp
  {c04bb258-9ea1-4fb1-8f61-af855715c365}; ! Name of Object 1

