
OS:Version,
  {41fdf78e-8f14-4de1-8c52-585ceed174fd}, ! Handle
  0.9.3;                                  ! Version Identifier

OS:SizingPeriod:DesignDay,
  {d8d4371d-4ba0-4c7f-a721-7ddc23e20bc0}, ! Handle
  Longview Gregg County Ap  Ove Ann Htg Wind 99.6% Condns WS=>MCDB, ! Name
  14.2,                                   ! Maximum Dry-Bulb Temperature {C}
  0,                                      ! Daily Dry-Bulb Temperature Range {deltaC}
  14.2,                                   ! Humidity Indicating Conditions at Maximum Dry-Bulb {BasedOnField A3}
  99583,                                  ! Barometric Pressure {Pa}
  10.6,                                   ! Wind Speed {m/s}
  340,                                    ! Wind Direction {deg}
  0,                                      ! Sky Clearness
  0,                                      ! Rain Indicator
  0,                                      ! Snow Indicator
  21,                                     ! Day of Month
  12,                                     ! Month
  WinterDesignDay,                        ! Day Type
  0,                                      ! Daylight Saving Time Indicator
  Wetbulb,                                ! Humidity Indicating Type
  ,                                       ! Humidity Indicating Day Schedule Name
  DefaultMultipliers,                     ! Dry-Bulb Temperature Range Modifier Type
  ,                                       ! Dry-Bulb Temperature Range Modifier Schedule Name
  ASHRAEClearSky;                         ! Solar Model Indicator

OS:ComponentData,
  {2b2f5a8f-47a2-40e0-b43d-bc1a190c9ed8}, ! Handle
  Component Data 1,                       ! Name
  {6d0bd970-0f36-49a1-92a0-04a771222450}, ! UUID
  {c25fc01b-590b-4969-97ed-120d018afbe0}, ! Version UUID
  1366310786,                             ! Creation Timestamp
  1366310786,                             ! Version Timestamp
  {d8d4371d-4ba0-4c7f-a721-7ddc23e20bc0}; ! Name of Object 1

