
OS:Version,
  {49fecad5-3f34-4e1e-be42-62c458ef46d8}, ! Handle
  0.9.3;                                  ! Version Identifier

OS:SizingPeriod:DesignDay,
  {391b2bab-d638-452d-94e1-5134602b2ad8}, ! Handle
  Fort Sill Post Field Af Ann Clg 2% Condns DB=>MWB, ! Name
  35.3,                                   ! Maximum Dry-Bulb Temperature {C}
  11.8,                                   ! Daily Dry-Bulb Temperature Range {deltaC}
  22.9,                                   ! Humidity Indicating Conditions at Maximum Dry-Bulb {BasedOnField A3}
  96970,                                  ! Barometric Pressure {Pa}
  4.9,                                    ! Wind Speed {m/s}
  170,                                    ! Wind Direction {deg}
  0,                                      ! Sky Clearness
  0,                                      ! Rain Indicator
  0,                                      ! Snow Indicator
  21,                                     ! Day of Month
  7,                                      ! Month
  SummerDesignDay,                        ! Day Type
  0,                                      ! Daylight Saving Time Indicator
  Wetbulb,                                ! Humidity Indicating Type
  ,                                       ! Humidity Indicating Day Schedule Name
  DefaultMultipliers,                     ! Dry-Bulb Temperature Range Modifier Type
  ,                                       ! Dry-Bulb Temperature Range Modifier Schedule Name
  ASHRAETau,                              ! Solar Model Indicator
  ,                                       ! Beam Solar Day Schedule Name
  ,                                       ! Diffuse Solar Day Schedule Name
  0.432,                                  ! ASHRAE Taub {dimensionless}
  2.178;                                  ! ASHRAE Taud {dimensionless}

OS:ComponentData,
  {e08a3d43-2d74-4097-9915-f69c770e507c}, ! Handle
  Component Data 1,                       ! Name
  {a6366cdc-3282-4ed4-a6fe-e3929ec02698}, ! UUID
  {2f67b9f4-45d1-47c5-9389-ba56334adbd5}, ! Version UUID
  1366309889,                             ! Creation Timestamp
  1366309889,                             ! Version Timestamp
  {391b2bab-d638-452d-94e1-5134602b2ad8}; ! Name of Object 1

