
OS:Version,
  {3e6fdd13-76ce-4d9e-a87a-d532120cee59}, ! Handle
  0.9.3;                                  ! Version Identifier

OS:SizingPeriod:DesignDay,
  {b605a053-dbc2-4b1d-b974-11073d71b7a8}, ! Handle
  Gainesville Regional Ap Ann Clg 2% Condns WB=>MDB, ! Name
  30.3,                                   ! Maximum Dry-Bulb Temperature {C}
  10.2,                                   ! Daily Dry-Bulb Temperature Range {deltaC}
  25.6,                                   ! Humidity Indicating Conditions at Maximum Dry-Bulb {BasedOnField A3}
  100833,                                 ! Barometric Pressure {Pa}
  3.7,                                    ! Wind Speed {m/s}
  270,                                    ! Wind Direction {deg}
  0,                                      ! Sky Clearness
  0,                                      ! Rain Indicator
  0,                                      ! Snow Indicator
  21,                                     ! Day of Month
  7,                                      ! Month
  SummerDesignDay,                        ! Day Type
  0,                                      ! Daylight Saving Time Indicator
  Wetbulb,                                ! Humidity Indicating Type
  ,                                       ! Humidity Indicating Day Schedule Name
  DefaultMultipliers,                     ! Dry-Bulb Temperature Range Modifier Type
  ,                                       ! Dry-Bulb Temperature Range Modifier Schedule Name
  ASHRAETau,                              ! Solar Model Indicator
  ,                                       ! Beam Solar Day Schedule Name
  ,                                       ! Diffuse Solar Day Schedule Name
  0.528,                                  ! ASHRAE Taub {dimensionless}
  1.887;                                  ! ASHRAE Taud {dimensionless}

OS:ComponentData,
  {7e67a9c9-6bf9-4943-9efa-adec00a60210}, ! Handle
  Component Data 1,                       ! Name
  {e92482c0-5e18-4b84-829c-f930dc721874}, ! UUID
  {5f79d0d2-b1f0-48b8-878b-af1273a36cfd}, ! Version UUID
  1366306809,                             ! Creation Timestamp
  1366306809,                             ! Version Timestamp
  {b605a053-dbc2-4b1d-b974-11073d71b7a8}; ! Name of Object 1

