
OS:Version,
  {287e8f1b-734f-4662-83fd-0350fbcd8624}, ! Handle
  0.9.3;                                  ! Version Identifier

OS:SizingPeriod:DesignDay,
  {532949fb-b263-4441-8197-3013fce75d37}, ! Handle
  Chattanooga Lovell Field Ap Ann Clg 1% Condns WB=>MDB, ! Name
  30.8,                                   ! Maximum Dry-Bulb Temperature {C}
  10.6,                                   ! Daily Dry-Bulb Temperature Range {deltaC}
  24.9,                                   ! Humidity Indicating Conditions at Maximum Dry-Bulb {BasedOnField A3}
  98898,                                  ! Barometric Pressure {Pa}
  3.2,                                    ! Wind Speed {m/s}
  280,                                    ! Wind Direction {deg}
  0,                                      ! Sky Clearness
  0,                                      ! Rain Indicator
  0,                                      ! Snow Indicator
  21,                                     ! Day of Month
  7,                                      ! Month
  SummerDesignDay,                        ! Day Type
  0,                                      ! Daylight Saving Time Indicator
  Wetbulb,                                ! Humidity Indicating Type
  ,                                       ! Humidity Indicating Day Schedule Name
  DefaultMultipliers,                     ! Dry-Bulb Temperature Range Modifier Type
  ,                                       ! Dry-Bulb Temperature Range Modifier Schedule Name
  ASHRAETau,                              ! Solar Model Indicator
  ,                                       ! Beam Solar Day Schedule Name
  ,                                       ! Diffuse Solar Day Schedule Name
  0.562,                                  ! ASHRAE Taub {dimensionless}
  1.761;                                  ! ASHRAE Taud {dimensionless}

OS:ComponentData,
  {0a746f91-e23b-41b6-931f-55b0612e495e}, ! Handle
  Component Data 1,                       ! Name
  {2a67d138-5238-4231-bd0a-1a848519f5cc}, ! UUID
  {629e0893-ad91-40b6-8790-7455c166405a}, ! Version UUID
  1366310489,                             ! Creation Timestamp
  1366310489,                             ! Version Timestamp
  {532949fb-b263-4441-8197-3013fce75d37}; ! Name of Object 1

