
OS:Version,
  {3fdacaca-39ea-4b08-a1b5-3100fd6264cd}, ! Handle
  0.9.3;                                  ! Version Identifier

OS:SizingPeriod:DesignDay,
  {67fcdf36-98c7-47f5-bb03-78fccdb3366d}, ! Handle
  Kearney Muni  Awos Ann Clg 1% Condns DB=>MWB, ! Name
  32.8,                                   ! Maximum Dry-Bulb Temperature {C}
  12.2,                                   ! Daily Dry-Bulb Temperature Range {deltaC}
  22.2,                                   ! Humidity Indicating Conditions at Maximum Dry-Bulb {BasedOnField A3}
  93767,                                  ! Barometric Pressure {Pa}
  6.4,                                    ! Wind Speed {m/s}
  190,                                    ! Wind Direction {deg}
  0,                                      ! Sky Clearness
  0,                                      ! Rain Indicator
  0,                                      ! Snow Indicator
  21,                                     ! Day of Month
  7,                                      ! Month
  SummerDesignDay,                        ! Day Type
  0,                                      ! Daylight Saving Time Indicator
  Wetbulb,                                ! Humidity Indicating Type
  ,                                       ! Humidity Indicating Day Schedule Name
  DefaultMultipliers,                     ! Dry-Bulb Temperature Range Modifier Type
  ,                                       ! Dry-Bulb Temperature Range Modifier Schedule Name
  ASHRAETau,                              ! Solar Model Indicator
  ,                                       ! Beam Solar Day Schedule Name
  ,                                       ! Diffuse Solar Day Schedule Name
  0.404,                                  ! ASHRAE Taub {dimensionless}
  2.221;                                  ! ASHRAE Taud {dimensionless}

OS:ComponentData,
  {dae8c748-aae3-468a-9fc8-2b0071942de1}, ! Handle
  Component Data 1,                       ! Name
  {9c96879f-0012-4933-b7b0-8fb687fbbdb9}, ! UUID
  {0ad8e945-75db-44e7-adbf-d010b548cfd9}, ! Version UUID
  1366309135,                             ! Creation Timestamp
  1366309135,                             ! Version Timestamp
  {67fcdf36-98c7-47f5-bb03-78fccdb3366d}; ! Name of Object 1

