
OS:Version,
  {14e8af0e-0207-4637-8dfa-51c6d4e9346f}, ! Handle
  0.9.3;                                  ! Version Identifier

OS:SizingPeriod:DesignDay,
  {e55bce10-9a06-48b0-8a58-8c17f74892bf}, ! Handle
  GRAND_RAPIDS Ann Clg .4% Condns Enth=>MDB, ! Name
  29.8,                                   ! Maximum Dry-Bulb Temperature {C}
  11.1,                                   ! Daily Dry-Bulb Temperature Range {deltaC}
  76100,                                  ! Humidity Indicating Conditions at Maximum Dry-Bulb {BasedOnField A3}
  98416,                                  ! Barometric Pressure {Pa}
  5.8,                                    ! Wind Speed {m/s}
  240,                                    ! Wind Direction {deg}
  0,                                      ! Sky Clearness
  0,                                      ! Rain Indicator
  0,                                      ! Snow Indicator
  21,                                     ! Day of Month
  7,                                      ! Month
  SummerDesignDay,                        ! Day Type
  0,                                      ! Daylight Saving Time Indicator
  Enthalpy,                               ! Humidity Indicating Type
  ,                                       ! Humidity Indicating Day Schedule Name
  DefaultMultipliers,                     ! Dry-Bulb Temperature Range Modifier Type
  ,                                       ! Dry-Bulb Temperature Range Modifier Schedule Name
  ASHRAETau,                              ! Solar Model Indicator
  ,                                       ! Beam Solar Day Schedule Name
  ,                                       ! Diffuse Solar Day Schedule Name
  0.424,                                  ! ASHRAE Taub {dimensionless}
  2.173;                                  ! ASHRAE Taud {dimensionless}

OS:ComponentData,
  {2bad391b-6780-417a-955c-bb717b6c297b}, ! Handle
  Component Data 1,                       ! Name
  {88d548a8-3be5-4ce5-84b5-a7f74bad486e}, ! UUID
  {2d2d0d9c-6d12-4acf-94b3-8004fa57ea54}, ! Version UUID
  1366308019,                             ! Creation Timestamp
  1366308019,                             ! Version Timestamp
  {e55bce10-9a06-48b0-8a58-8c17f74892bf}; ! Name of Object 1

