
OS:Version,
  {12ef035d-89c6-4980-a702-9f93792095f3}, ! Handle
  0.9.3;                                  ! Version Identifier

OS:SizingPeriod:DesignDay,
  {1e5b9016-d058-4862-a0c6-f437cba07fe0}, ! Handle
  Asheville Ann Clg 2% Condns DB=>MWB,    ! Name
  28.7,                                   ! Maximum Dry-Bulb Temperature {C}
  10.7,                                   ! Daily Dry-Bulb Temperature Range {deltaC}
  21.2,                                   ! Humidity Indicating Conditions at Maximum Dry-Bulb {BasedOnField A3}
  93632,                                  ! Barometric Pressure {Pa}
  3.8,                                    ! Wind Speed {m/s}
  340,                                    ! Wind Direction {deg}
  0,                                      ! Sky Clearness
  0,                                      ! Rain Indicator
  0,                                      ! Snow Indicator
  21,                                     ! Day of Month
  7,                                      ! Month
  SummerDesignDay,                        ! Day Type
  0,                                      ! Daylight Saving Time Indicator
  Wetbulb,                                ! Humidity Indicating Type
  ,                                       ! Humidity Indicating Day Schedule Name
  DefaultMultipliers,                     ! Dry-Bulb Temperature Range Modifier Type
  ,                                       ! Dry-Bulb Temperature Range Modifier Schedule Name
  ASHRAETau,                              ! Solar Model Indicator
  ,                                       ! Beam Solar Day Schedule Name
  ,                                       ! Diffuse Solar Day Schedule Name
  0.517,                                  ! ASHRAE Taub {dimensionless}
  1.849;                                  ! ASHRAE Taud {dimensionless}

OS:ComponentData,
  {37bb881d-c203-4806-871b-eb93852899fa}, ! Handle
  Component Data 1,                       ! Name
  {a97233eb-c311-40d3-a596-565407b7b46b}, ! UUID
  {3db9d7f7-ff50-4c79-8921-13ea41da5895}, ! Version UUID
  1366308864,                             ! Creation Timestamp
  1366308864,                             ! Version Timestamp
  {1e5b9016-d058-4862-a0c6-f437cba07fe0}; ! Name of Object 1

