
OS:Version,
  {3be4a205-35d8-426f-b76b-cc861938dce7}, ! Handle
  0.9.3;                                  ! Version Identifier

OS:SizingPeriod:DesignDay,
  {961fa140-8e7a-4624-baad-82ba5a421341}, ! Handle
  BATON_ROUGE Ann Htg Wind 99% Condns WS=>MCDB, ! Name
  15.5,                                   ! Maximum Dry-Bulb Temperature {C}
  0,                                      ! Daily Dry-Bulb Temperature Range {deltaC}
  15.5,                                   ! Humidity Indicating Conditions at Maximum Dry-Bulb {BasedOnField A3}
  101049,                                 ! Barometric Pressure {Pa}
  8.7,                                    ! Wind Speed {m/s}
  0,                                      ! Wind Direction {deg}
  0,                                      ! Sky Clearness
  0,                                      ! Rain Indicator
  0,                                      ! Snow Indicator
  21,                                     ! Day of Month
  1,                                      ! Month
  WinterDesignDay,                        ! Day Type
  0,                                      ! Daylight Saving Time Indicator
  Wetbulb,                                ! Humidity Indicating Type
  ,                                       ! Humidity Indicating Day Schedule Name
  DefaultMultipliers,                     ! Dry-Bulb Temperature Range Modifier Type
  ,                                       ! Dry-Bulb Temperature Range Modifier Schedule Name
  ASHRAEClearSky;                         ! Solar Model Indicator

OS:ComponentData,
  {9e06d193-85d5-483c-8c18-81d39c5f3df1}, ! Handle
  Component Data 1,                       ! Name
  {52dc1bd4-1fa2-4706-bd35-419d5e00eccd}, ! UUID
  {d8425c69-7e45-463f-9c51-f24b23348996}, ! Version UUID
  1366307710,                             ! Creation Timestamp
  1366307710,                             ! Version Timestamp
  {961fa140-8e7a-4624-baad-82ba5a421341}; ! Name of Object 1

