
OS:Version,
  {a7a11d75-9de3-4bee-b9ba-655a23aac87a}, ! Handle
  0.9.3;                                  ! Version Identifier

OS:SizingPeriod:DesignDay,
  {1375801f-45a2-4a50-b09f-84d0d1ac70e2}, ! Handle
  GULKANA Ann Clg 2% Condns DB=>MWB,      ! Name
  21.2,                                   ! Maximum Dry-Bulb Temperature {C}
  11.7,                                   ! Daily Dry-Bulb Temperature Range {deltaC}
  12.6,                                   ! Humidity Indicating Conditions at Maximum Dry-Bulb {BasedOnField A3}
  95679,                                  ! Barometric Pressure {Pa}
  2.6,                                    ! Wind Speed {m/s}
  160,                                    ! Wind Direction {deg}
  0,                                      ! Sky Clearness
  0,                                      ! Rain Indicator
  0,                                      ! Snow Indicator
  21,                                     ! Day of Month
  7,                                      ! Month
  SummerDesignDay,                        ! Day Type
  0,                                      ! Daylight Saving Time Indicator
  Wetbulb,                                ! Humidity Indicating Type
  ,                                       ! Humidity Indicating Day Schedule Name
  DefaultMultipliers,                     ! Dry-Bulb Temperature Range Modifier Type
  ,                                       ! Dry-Bulb Temperature Range Modifier Schedule Name
  ASHRAETau,                              ! Solar Model Indicator
  ,                                       ! Beam Solar Day Schedule Name
  ,                                       ! Diffuse Solar Day Schedule Name
  0.385,                                  ! ASHRAE Taub {dimensionless}
  2.111;                                  ! ASHRAE Taud {dimensionless}

OS:ComponentData,
  {3ef6a4f4-84e4-4963-a519-b7d66cbb06ba}, ! Handle
  Component Data 1,                       ! Name
  {265ed58e-43dd-4185-84ff-63ddca2ab196}, ! UUID
  {31eb63df-e9cf-4433-a237-c95ee74c29f0}, ! Version UUID
  1366305287,                             ! Creation Timestamp
  1366305287,                             ! Version Timestamp
  {1375801f-45a2-4a50-b09f-84d0d1ac70e2}; ! Name of Object 1

