
OS:Version,
  {30f26c25-4e61-400e-93b8-1d3faf9f0bf2}, ! Handle
  0.9.3;                                  ! Version Identifier

OS:SizingPeriod:DesignDay,
  {ae7f41b8-616d-4818-bad7-d5f832004b2c}, ! Handle
  Devils Lake Awos Ann Hum_n 99% Condns DP=>MCDB, ! Name
  -25.7,                                  ! Maximum Dry-Bulb Temperature {C}
  0,                                      ! Daily Dry-Bulb Temperature Range {deltaC}
  -32.4,                                  ! Humidity Indicating Conditions at Maximum Dry-Bulb {BasedOnField A3}
  96115,                                  ! Barometric Pressure {Pa}
  3.5,                                    ! Wind Speed {m/s}
  300,                                    ! Wind Direction {deg}
  0,                                      ! Sky Clearness
  0,                                      ! Rain Indicator
  0,                                      ! Snow Indicator
  21,                                     ! Day of Month
  1,                                      ! Month
  WinterDesignDay,                        ! Day Type
  0,                                      ! Daylight Saving Time Indicator
  Dewpoint,                               ! Humidity Indicating Type
  ,                                       ! Humidity Indicating Day Schedule Name
  DefaultMultipliers,                     ! Dry-Bulb Temperature Range Modifier Type
  ,                                       ! Dry-Bulb Temperature Range Modifier Schedule Name
  ASHRAEClearSky;                         ! Solar Model Indicator

OS:ComponentData,
  {a3c0fe42-cde4-4ce1-9568-deb4a1a336c7}, ! Handle
  Component Data 1,                       ! Name
  {61a5b0db-b359-4060-9f1e-39cf5cf2e576}, ! UUID
  {1e934c42-d927-4266-8e5c-100e79dc2061}, ! Version UUID
  1366309010,                             ! Creation Timestamp
  1366309010,                             ! Version Timestamp
  {ae7f41b8-616d-4818-bad7-d5f832004b2c}; ! Name of Object 1

