
OS:Version,
  {8f158c69-db8e-4b86-a8a6-544bfa4dd200}, ! Handle
  0.9.3;                                  ! Version Identifier

OS:SizingPeriod:DesignDay,
  {c8ead929-5f1d-448c-ab07-a32bdc862e31}, ! Handle
  Amarillo International Ap  Ca Ann Clg 2% Condns DB=>MWB, ! Name
  33.5,                                   ! Maximum Dry-Bulb Temperature {C}
  13.8,                                   ! Daily Dry-Bulb Temperature Range {deltaC}
  19,                                     ! Humidity Indicating Conditions at Maximum Dry-Bulb {BasedOnField A3}
  89136,                                  ! Barometric Pressure {Pa}
  6.9,                                    ! Wind Speed {m/s}
  210,                                    ! Wind Direction {deg}
  0,                                      ! Sky Clearness
  0,                                      ! Rain Indicator
  0,                                      ! Snow Indicator
  21,                                     ! Day of Month
  7,                                      ! Month
  SummerDesignDay,                        ! Day Type
  0,                                      ! Daylight Saving Time Indicator
  Wetbulb,                                ! Humidity Indicating Type
  ,                                       ! Humidity Indicating Day Schedule Name
  DefaultMultipliers,                     ! Dry-Bulb Temperature Range Modifier Type
  ,                                       ! Dry-Bulb Temperature Range Modifier Schedule Name
  ASHRAETau,                              ! Solar Model Indicator
  ,                                       ! Beam Solar Day Schedule Name
  ,                                       ! Diffuse Solar Day Schedule Name
  0.414,                                  ! ASHRAE Taub {dimensionless}
  2.136;                                  ! ASHRAE Taud {dimensionless}

OS:ComponentData,
  {8a93ac9a-245c-4128-bbaa-300c8439ed7c}, ! Handle
  Component Data 1,                       ! Name
  {dd69b665-b63b-42fe-8809-fdb453fb767a}, ! UUID
  {46b1d17e-f2c4-4888-8cb5-b133a28ae93b}, ! Version UUID
  1366310574,                             ! Creation Timestamp
  1366310574,                             ! Version Timestamp
  {c8ead929-5f1d-448c-ab07-a32bdc862e31}; ! Name of Object 1

