
OS:Version,
  {6a0ab451-0baa-4d01-8f26-acaf6f44a154}, ! Handle
  0.9.3;                                  ! Version Identifier

OS:SizingPeriod:DesignDay,
  {cf674825-8772-4f89-9903-ad45ea54396f}, ! Handle
  Fort Dodge  Awos Ann Clg 2% Condns Enth=>MDB, ! Name
  28.3,                                   ! Maximum Dry-Bulb Temperature {C}
  10.7,                                   ! Daily Dry-Bulb Temperature Range {deltaC}
  71700,                                  ! Humidity Indicating Conditions at Maximum Dry-Bulb {BasedOnField A3}
  97132,                                  ! Barometric Pressure {Pa}
  5.4,                                    ! Wind Speed {m/s}
  200,                                    ! Wind Direction {deg}
  0,                                      ! Sky Clearness
  0,                                      ! Rain Indicator
  0,                                      ! Snow Indicator
  21,                                     ! Day of Month
  7,                                      ! Month
  SummerDesignDay,                        ! Day Type
  0,                                      ! Daylight Saving Time Indicator
  Enthalpy,                               ! Humidity Indicating Type
  ,                                       ! Humidity Indicating Day Schedule Name
  DefaultMultipliers,                     ! Dry-Bulb Temperature Range Modifier Type
  ,                                       ! Dry-Bulb Temperature Range Modifier Schedule Name
  ASHRAETau,                              ! Solar Model Indicator
  ,                                       ! Beam Solar Day Schedule Name
  ,                                       ! Diffuse Solar Day Schedule Name
  0.409,                                  ! ASHRAE Taub {dimensionless}
  2.217;                                  ! ASHRAE Taud {dimensionless}

OS:ComponentData,
  {bbbd5fb8-5495-441f-8a0d-e12b9d892a59}, ! Handle
  Component Data 1,                       ! Name
  {57c651d5-62de-41b7-9807-12c3301bc700}, ! UUID
  {6017a1eb-4e3d-4faf-8013-7abe5b14d3d1}, ! Version UUID
  1366307198,                             ! Creation Timestamp
  1366307198,                             ! Version Timestamp
  {cf674825-8772-4f89-9903-ad45ea54396f}; ! Name of Object 1

