
OS:Version,
  {ef2091e4-d4b8-4e68-b8ef-515d7595e34e}, ! Handle
  0.9.3;                                  ! Version Identifier

OS:SizingPeriod:DesignDay,
  {20b0e136-bead-42fa-89b0-13445dbf99fa}, ! Handle
  King Salmon Ann Clg .4% Condns DB=>MWB, ! Name
  22.3,                                   ! Maximum Dry-Bulb Temperature {C}
  8.6,                                    ! Daily Dry-Bulb Temperature Range {deltaC}
  14.8,                                   ! Humidity Indicating Conditions at Maximum Dry-Bulb {BasedOnField A3}
  101145,                                 ! Barometric Pressure {Pa}
  4.8,                                    ! Wind Speed {m/s}
  270,                                    ! Wind Direction {deg}
  0,                                      ! Sky Clearness
  0,                                      ! Rain Indicator
  0,                                      ! Snow Indicator
  21,                                     ! Day of Month
  7,                                      ! Month
  SummerDesignDay,                        ! Day Type
  0,                                      ! Daylight Saving Time Indicator
  Wetbulb,                                ! Humidity Indicating Type
  ,                                       ! Humidity Indicating Day Schedule Name
  DefaultMultipliers,                     ! Dry-Bulb Temperature Range Modifier Type
  ,                                       ! Dry-Bulb Temperature Range Modifier Schedule Name
  ASHRAETau,                              ! Solar Model Indicator
  ,                                       ! Beam Solar Day Schedule Name
  ,                                       ! Diffuse Solar Day Schedule Name
  0.384,                                  ! ASHRAE Taub {dimensionless}
  2.227;                                  ! ASHRAE Taud {dimensionless}

OS:ComponentData,
  {9db2ba6f-c5f2-4cb1-9da3-18d4b1841506}, ! Handle
  Component Data 1,                       ! Name
  {c38de404-ebdb-4b78-af7a-201e7dcfa490}, ! UUID
  {5b9a23ea-249f-41d0-8f66-a25c52c5d041}, ! Version UUID
  1366305362,                             ! Creation Timestamp
  1366305362,                             ! Version Timestamp
  {20b0e136-bead-42fa-89b0-13445dbf99fa}; ! Name of Object 1

