
OS:Version,
  {43dddcd4-0774-486f-879d-d5ae7a727b7b}, ! Handle
  0.9.3;                                  ! Version Identifier

OS:SizingPeriod:DesignDay,
  {e36318cd-38d3-4f32-a718-00eea8634623}, ! Handle
  Louisville Ann Hum_n 99% Condns DP=>MCDB, ! Name
  -8.1,                                   ! Maximum Dry-Bulb Temperature {C}
  0,                                      ! Daily Dry-Bulb Temperature Range {deltaC}
  -15.9,                                  ! Humidity Indicating Conditions at Maximum Dry-Bulb {BasedOnField A3}
  99548,                                  ! Barometric Pressure {Pa}
  3.9,                                    ! Wind Speed {m/s}
  270,                                    ! Wind Direction {deg}
  0,                                      ! Sky Clearness
  0,                                      ! Rain Indicator
  0,                                      ! Snow Indicator
  21,                                     ! Day of Month
  1,                                      ! Month
  WinterDesignDay,                        ! Day Type
  0,                                      ! Daylight Saving Time Indicator
  Dewpoint,                               ! Humidity Indicating Type
  ,                                       ! Humidity Indicating Day Schedule Name
  DefaultMultipliers,                     ! Dry-Bulb Temperature Range Modifier Type
  ,                                       ! Dry-Bulb Temperature Range Modifier Schedule Name
  ASHRAEClearSky;                         ! Solar Model Indicator

OS:ComponentData,
  {ef1166a3-cdc9-484a-9e60-b87f2f9d61ac}, ! Handle
  Component Data 1,                       ! Name
  {a8089eb0-5f38-4b8b-bb13-491d8cd13b5d}, ! UUID
  {a7ec70bb-0814-4730-bb0b-5e7d0fe4f655}, ! Version UUID
  1366307667,                             ! Creation Timestamp
  1366307667,                             ! Version Timestamp
  {e36318cd-38d3-4f32-a718-00eea8634623}; ! Name of Object 1

