
OS:Version,
  {bdbf3786-1b6b-4b78-b491-c55e00040d0d}, ! Handle
  0.9.3;                                  ! Version Identifier

OS:SizingPeriod:DesignDay,
  {74542369-ff3b-4f0a-bd16-2fd7ad9930cb}, ! Handle
  Hoquiam Ap Ann Htg Wind 99% Condns WS=>MCDB, ! Name
  9.1,                                    ! Maximum Dry-Bulb Temperature {C}
  0,                                      ! Daily Dry-Bulb Temperature Range {deltaC}
  9.1,                                    ! Humidity Indicating Conditions at Maximum Dry-Bulb {BasedOnField A3}
  101277,                                 ! Barometric Pressure {Pa}
  13.6,                                   ! Wind Speed {m/s}
  70,                                     ! Wind Direction {deg}
  0,                                      ! Sky Clearness
  0,                                      ! Rain Indicator
  0,                                      ! Snow Indicator
  21,                                     ! Day of Month
  12,                                     ! Month
  WinterDesignDay,                        ! Day Type
  0,                                      ! Daylight Saving Time Indicator
  Wetbulb,                                ! Humidity Indicating Type
  ,                                       ! Humidity Indicating Day Schedule Name
  DefaultMultipliers,                     ! Dry-Bulb Temperature Range Modifier Type
  ,                                       ! Dry-Bulb Temperature Range Modifier Schedule Name
  ASHRAEClearSky;                         ! Solar Model Indicator

OS:ComponentData,
  {dd2052be-0717-43f3-ae02-4a971a8658ad}, ! Handle
  Component Data 1,                       ! Name
  {47e5bb99-80da-4b64-8e87-95aff118db70}, ! UUID
  {2c7b0485-e01c-4b65-97ca-486ccc0b7382}, ! Version UUID
  1366311291,                             ! Creation Timestamp
  1366311291,                             ! Version Timestamp
  {74542369-ff3b-4f0a-bd16-2fd7ad9930cb}; ! Name of Object 1

