
OS:Version,
  {5cd61fe8-f951-4b9e-9326-40ad4f957d32}, ! Handle
  0.9.3;                                  ! Version Identifier

OS:SizingPeriod:DesignDay,
  {d0a2e699-1979-4612-97a8-fd33b8d61131}, ! Handle
  Greensboro Piedmont Triad Int Ann Hum_n 99% Condns DP=>MCDB, ! Name
  -2.3,                                   ! Maximum Dry-Bulb Temperature {C}
  0,                                      ! Daily Dry-Bulb Temperature Range {deltaC}
  -15.5,                                  ! Humidity Indicating Conditions at Maximum Dry-Bulb {BasedOnField A3}
  98088,                                  ! Barometric Pressure {Pa}
  3,                                      ! Wind Speed {m/s}
  300,                                    ! Wind Direction {deg}
  0,                                      ! Sky Clearness
  0,                                      ! Rain Indicator
  0,                                      ! Snow Indicator
  21,                                     ! Day of Month
  1,                                      ! Month
  WinterDesignDay,                        ! Day Type
  0,                                      ! Daylight Saving Time Indicator
  Dewpoint,                               ! Humidity Indicating Type
  ,                                       ! Humidity Indicating Day Schedule Name
  DefaultMultipliers,                     ! Dry-Bulb Temperature Range Modifier Type
  ,                                       ! Dry-Bulb Temperature Range Modifier Schedule Name
  ASHRAEClearSky;                         ! Solar Model Indicator

OS:ComponentData,
  {bd418e8d-f3f9-48ef-95bc-bdc1ede3e4b8}, ! Handle
  Component Data 1,                       ! Name
  {d0f7f4e1-052e-4ec8-b34c-5f6330aa9fc1}, ! UUID
  {777f11f0-311a-4413-9aaf-5ae1e27b791c}, ! Version UUID
  1366308932,                             ! Creation Timestamp
  1366308932,                             ! Version Timestamp
  {d0a2e699-1979-4612-97a8-fd33b8d61131}; ! Name of Object 1

