
OS:Version,
  {6cc1793a-9e42-4c79-81e7-18dbc9a31f32}, ! Handle
  0.9.3;                                  ! Version Identifier

OS:SizingPeriod:DesignDay,
  {576e2ab5-e06a-481e-ae9c-a25e65416b90}, ! Handle
  Crescent City Faa Ai Ann Clg 2% Condns DB=>MWB, ! Name
  17.7,                                   ! Maximum Dry-Bulb Temperature {C}
  5.7,                                    ! Daily Dry-Bulb Temperature Range {deltaC}
  14.2,                                   ! Humidity Indicating Conditions at Maximum Dry-Bulb {BasedOnField A3}
  101121,                                 ! Barometric Pressure {Pa}
  3.9,                                    ! Wind Speed {m/s}
  310,                                    ! Wind Direction {deg}
  0,                                      ! Sky Clearness
  0,                                      ! Rain Indicator
  0,                                      ! Snow Indicator
  21,                                     ! Day of Month
  8,                                      ! Month
  SummerDesignDay,                        ! Day Type
  0,                                      ! Daylight Saving Time Indicator
  Wetbulb,                                ! Humidity Indicating Type
  ,                                       ! Humidity Indicating Day Schedule Name
  DefaultMultipliers,                     ! Dry-Bulb Temperature Range Modifier Type
  ,                                       ! Dry-Bulb Temperature Range Modifier Schedule Name
  ASHRAETau,                              ! Solar Model Indicator
  ,                                       ! Beam Solar Day Schedule Name
  ,                                       ! Diffuse Solar Day Schedule Name
  0.362,                                  ! ASHRAE Taub {dimensionless}
  2.529;                                  ! ASHRAE Taud {dimensionless}

OS:ComponentData,
  {564f7d8e-5f64-46ec-a43e-071a5edad4bd}, ! Handle
  Component Data 1,                       ! Name
  {30255c99-2988-4c6b-ad0f-f7a49d975cce}, ! UUID
  {eecb2691-be4c-4fa9-85e5-579d2615c8c9}, ! Version UUID
  1366306418,                             ! Creation Timestamp
  1366306418,                             ! Version Timestamp
  {576e2ab5-e06a-481e-ae9c-a25e65416b90}; ! Name of Object 1

