
OS:Version,
  {d7f6cc0b-99ca-4fc0-acea-067bb41b1f01}, ! Handle
  0.9.3;                                  ! Version Identifier

OS:SizingPeriod:DesignDay,
  {095f5706-c6a2-4fbe-9b56-70521fa3a5ab}, ! Handle
  Las Vegas Mccarran Intl Ap Ann Htg Wind 99.6% Condns WS=>MCDB, ! Name
  9.2,                                    ! Maximum Dry-Bulb Temperature {C}
  0,                                      ! Daily Dry-Bulb Temperature Range {deltaC}
  9.2,                                    ! Humidity Indicating Conditions at Maximum Dry-Bulb {BasedOnField A3}
  93779,                                  ! Barometric Pressure {Pa}
  12.9,                                   ! Wind Speed {m/s}
  240,                                    ! Wind Direction {deg}
  0,                                      ! Sky Clearness
  0,                                      ! Rain Indicator
  0,                                      ! Snow Indicator
  21,                                     ! Day of Month
  12,                                     ! Month
  WinterDesignDay,                        ! Day Type
  0,                                      ! Daylight Saving Time Indicator
  Wetbulb,                                ! Humidity Indicating Type
  ,                                       ! Humidity Indicating Day Schedule Name
  DefaultMultipliers,                     ! Dry-Bulb Temperature Range Modifier Type
  ,                                       ! Dry-Bulb Temperature Range Modifier Schedule Name
  ASHRAEClearSky;                         ! Solar Model Indicator

OS:ComponentData,
  {f4dc788d-1ef5-47ca-857f-7bc0c8c267ca}, ! Handle
  Component Data 1,                       ! Name
  {cd237798-153d-4869-8e2b-db63b506b905}, ! UUID
  {ae7b44f9-919f-4534-a3ba-16993851a837}, ! Version UUID
  1366309500,                             ! Creation Timestamp
  1366309500,                             ! Version Timestamp
  {095f5706-c6a2-4fbe-9b56-70521fa3a5ab}; ! Name of Object 1

