
OS:Version,
  {86b2b7c2-ca87-4cbb-893c-df199651eabe}, ! Handle
  0.9.3;                                  ! Version Identifier

OS:SizingPeriod:DesignDay,
  {e67ef7dc-6002-45e9-9ae3-71e491df5f54}, ! Handle
  KALISPELL Ann Clg .4% Condns DB=>MWB,   ! Name
  32.1,                                   ! Maximum Dry-Bulb Temperature {C}
  17,                                     ! Daily Dry-Bulb Temperature Range {deltaC}
  16.9,                                   ! Humidity Indicating Conditions at Maximum Dry-Bulb {BasedOnField A3}
  90926,                                  ! Barometric Pressure {Pa}
  3.6,                                    ! Wind Speed {m/s}
  160,                                    ! Wind Direction {deg}
  0,                                      ! Sky Clearness
  0,                                      ! Rain Indicator
  0,                                      ! Snow Indicator
  21,                                     ! Day of Month
  7,                                      ! Month
  SummerDesignDay,                        ! Day Type
  0,                                      ! Daylight Saving Time Indicator
  Wetbulb,                                ! Humidity Indicating Type
  ,                                       ! Humidity Indicating Day Schedule Name
  DefaultMultipliers,                     ! Dry-Bulb Temperature Range Modifier Type
  ,                                       ! Dry-Bulb Temperature Range Modifier Schedule Name
  ASHRAETau,                              ! Solar Model Indicator
  ,                                       ! Beam Solar Day Schedule Name
  ,                                       ! Diffuse Solar Day Schedule Name
  0.355,                                  ! ASHRAE Taub {dimensionless}
  2.406;                                  ! ASHRAE Taud {dimensionless}

OS:ComponentData,
  {12babe71-f10d-458f-9c5f-f1777697c958}, ! Handle
  Component Data 1,                       ! Name
  {586ee4d4-c370-45da-97f8-b1645136999a}, ! UUID
  {38365dfc-6c26-410e-a1bb-26c018f03848}, ! Version UUID
  1366308808,                             ! Creation Timestamp
  1366308808,                             ! Version Timestamp
  {e67ef7dc-6002-45e9-9ae3-71e491df5f54}; ! Name of Object 1

