
OS:Version,
  {38fb62c4-dc9d-456d-bea3-1afa32b4ef7f}, ! Handle
  0.9.3;                                  ! Version Identifier

OS:SizingPeriod:DesignDay,
  {4c121225-1037-43a2-8a1c-228cb7e1f189}, ! Handle
  Greer GreenvL Spartanbrg Ap Ann Clg 2% Condns DB=>MWB, ! Name
  31.7,                                   ! Maximum Dry-Bulb Temperature {C}
  10.6,                                   ! Daily Dry-Bulb Temperature Range {deltaC}
  22.9,                                   ! Humidity Indicating Conditions at Maximum Dry-Bulb {BasedOnField A3}
  97866,                                  ! Barometric Pressure {Pa}
  3.6,                                    ! Wind Speed {m/s}
  230,                                    ! Wind Direction {deg}
  0,                                      ! Sky Clearness
  0,                                      ! Rain Indicator
  0,                                      ! Snow Indicator
  21,                                     ! Day of Month
  7,                                      ! Month
  SummerDesignDay,                        ! Day Type
  0,                                      ! Daylight Saving Time Indicator
  Wetbulb,                                ! Humidity Indicating Type
  ,                                       ! Humidity Indicating Day Schedule Name
  DefaultMultipliers,                     ! Dry-Bulb Temperature Range Modifier Type
  ,                                       ! Dry-Bulb Temperature Range Modifier Schedule Name
  ASHRAETau,                              ! Solar Model Indicator
  ,                                       ! Beam Solar Day Schedule Name
  ,                                       ! Diffuse Solar Day Schedule Name
  0.545,                                  ! ASHRAE Taub {dimensionless}
  1.796;                                  ! ASHRAE Taud {dimensionless}

OS:ComponentData,
  {17bb462b-914d-4c11-b127-e6fc4ef10a07}, ! Handle
  Component Data 1,                       ! Name
  {c331bfbb-ba2b-4b97-8719-f58a5d43459e}, ! UUID
  {dfb00e6e-dda3-4e81-92ea-a5747d55eac4}, ! Version UUID
  1366310368,                             ! Creation Timestamp
  1366310368,                             ! Version Timestamp
  {4c121225-1037-43a2-8a1c-228cb7e1f189}; ! Name of Object 1

