
OS:Version,
  {46dc8cca-b1cd-4f27-a7c7-f2b3d7d3f5e7}, ! Handle
  0.9.3;                                  ! Version Identifier

OS:SizingPeriod:DesignDay,
  {46894ead-fb99-4757-b0bb-0a8b0a7c9bd6}, ! Handle
  Juneau Ann Clg 2% Condns Enth=>MDB,     ! Name
  18,                                     ! Maximum Dry-Bulb Temperature {C}
  7.3,                                    ! Daily Dry-Bulb Temperature Range {deltaC}
  40400,                                  ! Humidity Indicating Conditions at Maximum Dry-Bulb {BasedOnField A3}
  101289,                                 ! Barometric Pressure {Pa}
  3.7,                                    ! Wind Speed {m/s}
  230,                                    ! Wind Direction {deg}
  0,                                      ! Sky Clearness
  0,                                      ! Rain Indicator
  0,                                      ! Snow Indicator
  21,                                     ! Day of Month
  7,                                      ! Month
  SummerDesignDay,                        ! Day Type
  0,                                      ! Daylight Saving Time Indicator
  Enthalpy,                               ! Humidity Indicating Type
  ,                                       ! Humidity Indicating Day Schedule Name
  DefaultMultipliers,                     ! Dry-Bulb Temperature Range Modifier Type
  ,                                       ! Dry-Bulb Temperature Range Modifier Schedule Name
  ASHRAETau,                              ! Solar Model Indicator
  ,                                       ! Beam Solar Day Schedule Name
  ,                                       ! Diffuse Solar Day Schedule Name
  0.43,                                   ! ASHRAE Taub {dimensionless}
  1.968;                                  ! ASHRAE Taud {dimensionless}

OS:ComponentData,
  {dbe450f9-d4f8-4aa7-8560-6dec4a873b34}, ! Handle
  Component Data 1,                       ! Name
  {f0b82550-e59e-4d77-9df9-13378c116fe1}, ! UUID
  {df1f59fc-9bc6-4060-a7cf-49769019fc73}, ! Version UUID
  1366305334,                             ! Creation Timestamp
  1366305334,                             ! Version Timestamp
  {46894ead-fb99-4757-b0bb-0a8b0a7c9bd6}; ! Name of Object 1

