
OS:Version,
  {9888740f-f6a1-4a63-89c8-5e98336dbbf6}, ! Handle
  0.9.3;                                  ! Version Identifier

OS:SizingPeriod:DesignDay,
  {d6f17361-9155-4502-8710-264e16b86e74}, ! Handle
  Clovis Muni   Awos Ann Clg .4% Condns WB=>MDB, ! Name
  29,                                     ! Maximum Dry-Bulb Temperature {C}
  15.4,                                   ! Daily Dry-Bulb Temperature Range {deltaC}
  20.8,                                   ! Humidity Indicating Conditions at Maximum Dry-Bulb {BasedOnField A3}
  86821,                                  ! Barometric Pressure {Pa}
  5.9,                                    ! Wind Speed {m/s}
  170,                                    ! Wind Direction {deg}
  0,                                      ! Sky Clearness
  0,                                      ! Rain Indicator
  0,                                      ! Snow Indicator
  21,                                     ! Day of Month
  7,                                      ! Month
  SummerDesignDay,                        ! Day Type
  0,                                      ! Daylight Saving Time Indicator
  Wetbulb,                                ! Humidity Indicating Type
  ,                                       ! Humidity Indicating Day Schedule Name
  DefaultMultipliers,                     ! Dry-Bulb Temperature Range Modifier Type
  ,                                       ! Dry-Bulb Temperature Range Modifier Schedule Name
  ASHRAETau,                              ! Solar Model Indicator
  ,                                       ! Beam Solar Day Schedule Name
  ,                                       ! Diffuse Solar Day Schedule Name
  0.392,                                  ! ASHRAE Taub {dimensionless}
  2.203;                                  ! ASHRAE Taud {dimensionless}

OS:ComponentData,
  {8355b6dc-2f06-4576-abff-81540af76a0c}, ! Handle
  Component Data 1,                       ! Name
  {75a0da7b-a965-4854-8c8a-34f56eb06897}, ! UUID
  {bca817dd-4b41-4ed3-8c41-a3b55d7b9ff3}, ! Version UUID
  1366309396,                             ! Creation Timestamp
  1366309396,                             ! Version Timestamp
  {d6f17361-9155-4502-8710-264e16b86e74}; ! Name of Object 1

