
OS:Version,
  {f70282ae-a0fe-4135-b306-9af67c7e5a5f}, ! Handle
  0.9.3;                                  ! Version Identifier

OS:SizingPeriod:DesignDay,
  {7b015d37-57d9-4e3f-84e5-64bc46258dde}, ! Handle
  Camarillo  Awos Ann Clg 2% Condns Enth=>MDB, ! Name
  24.5,                                   ! Maximum Dry-Bulb Temperature {C}
  9.7,                                    ! Daily Dry-Bulb Temperature Range {deltaC}
  55500,                                  ! Humidity Indicating Conditions at Maximum Dry-Bulb {BasedOnField A3}
  101049,                                 ! Barometric Pressure {Pa}
  5.8,                                    ! Wind Speed {m/s}
  60,                                     ! Wind Direction {deg}
  0,                                      ! Sky Clearness
  0,                                      ! Rain Indicator
  0,                                      ! Snow Indicator
  21,                                     ! Day of Month
  8,                                      ! Month
  SummerDesignDay,                        ! Day Type
  0,                                      ! Daylight Saving Time Indicator
  Enthalpy,                               ! Humidity Indicating Type
  ,                                       ! Humidity Indicating Day Schedule Name
  DefaultMultipliers,                     ! Dry-Bulb Temperature Range Modifier Type
  ,                                       ! Dry-Bulb Temperature Range Modifier Schedule Name
  ASHRAETau,                              ! Solar Model Indicator
  ,                                       ! Beam Solar Day Schedule Name
  ,                                       ! Diffuse Solar Day Schedule Name
  0.428,                                  ! ASHRAE Taub {dimensionless}
  2.187;                                  ! ASHRAE Taud {dimensionless}

OS:ComponentData,
  {71ada6f3-aa64-4658-bedb-4376c316af45}, ! Handle
  Component Data 1,                       ! Name
  {e0e59071-8e15-4f33-8d94-7743236d2a16}, ! UUID
  {23400d8e-7ece-4599-9bda-ed7faa2f8213}, ! Version UUID
  1366306397,                             ! Creation Timestamp
  1366306397,                             ! Version Timestamp
  {7b015d37-57d9-4e3f-84e5-64bc46258dde}; ! Name of Object 1

