
OS:Version,
  {7c21540f-0acf-4c2e-b29b-3363c205b42e}, ! Handle
  0.9.3;                                  ! Version Identifier

OS:SizingPeriod:DesignDay,
  {8855cac0-770f-4657-9d9b-606f7f34c035}, ! Handle
  Great Falls/Malmstrom Ann Hum_n 99.6% Condns DP=>MCDB, ! Name
  -27.4,                                  ! Maximum Dry-Bulb Temperature {C}
  0,                                      ! Daily Dry-Bulb Temperature Range {deltaC}
  -31.5,                                  ! Humidity Indicating Conditions at Maximum Dry-Bulb {BasedOnField A3}
  89060,                                  ! Barometric Pressure {Pa}
  2.7,                                    ! Wind Speed {m/s}
  230,                                    ! Wind Direction {deg}
  0,                                      ! Sky Clearness
  0,                                      ! Rain Indicator
  0,                                      ! Snow Indicator
  21,                                     ! Day of Month
  1,                                      ! Month
  WinterDesignDay,                        ! Day Type
  0,                                      ! Daylight Saving Time Indicator
  Dewpoint,                               ! Humidity Indicating Type
  ,                                       ! Humidity Indicating Day Schedule Name
  DefaultMultipliers,                     ! Dry-Bulb Temperature Range Modifier Type
  ,                                       ! Dry-Bulb Temperature Range Modifier Schedule Name
  ASHRAEClearSky;                         ! Solar Model Indicator

OS:ComponentData,
  {e57b420b-7600-41b0-af27-511ed540cb8f}, ! Handle
  Component Data 1,                       ! Name
  {5da2dd3a-c470-4c50-9e72-f5f152893a76}, ! UUID
  {a9e02e06-ee0b-4449-8886-f2455a01e4df}, ! Version UUID
  1366308775,                             ! Creation Timestamp
  1366308775,                             ! Version Timestamp
  {8855cac0-770f-4657-9d9b-606f7f34c035}; ! Name of Object 1

