
OS:Version,
  {e81d0b80-fa96-4108-a612-27c3ff1faa3b}, ! Handle
  0.9.3;                                  ! Version Identifier

OS:SizingPeriod:DesignDay,
  {fe1e609e-6988-4f28-b358-6360226e8f39}, ! Handle
  Grissom Arb Ann Htg 99.6% Condns DB,    ! Name
  -20,                                    ! Maximum Dry-Bulb Temperature {C}
  0,                                      ! Daily Dry-Bulb Temperature Range {deltaC}
  -20,                                    ! Humidity Indicating Conditions at Maximum Dry-Bulb {BasedOnField A3}
  98322,                                  ! Barometric Pressure {Pa}
  4.8,                                    ! Wind Speed {m/s}
  270,                                    ! Wind Direction {deg}
  0,                                      ! Sky Clearness
  0,                                      ! Rain Indicator
  0,                                      ! Snow Indicator
  21,                                     ! Day of Month
  1,                                      ! Month
  WinterDesignDay,                        ! Day Type
  0,                                      ! Daylight Saving Time Indicator
  Wetbulb,                                ! Humidity Indicating Type
  ,                                       ! Humidity Indicating Day Schedule Name
  DefaultMultipliers,                     ! Dry-Bulb Temperature Range Modifier Type
  ,                                       ! Dry-Bulb Temperature Range Modifier Schedule Name
  ASHRAEClearSky;                         ! Solar Model Indicator

OS:ComponentData,
  {2539c686-875c-4f95-bdcd-13f21faf4db2}, ! Handle
  Component Data 1,                       ! Name
  {17a8e67e-94cd-4727-9193-d9b0f1945307}, ! UUID
  {6367597e-8c4a-4510-bb8b-75513b501dff}, ! Version UUID
  1366307449,                             ! Creation Timestamp
  1366307449,                             ! Version Timestamp
  {fe1e609e-6988-4f28-b358-6360226e8f39}; ! Name of Object 1

