
OS:Version,
  {295b9de9-d718-43bc-a4c5-c1e93420cf75}, ! Handle
  0.9.3;                                  ! Version Identifier

OS:SizingPeriod:DesignDay,
  {43585714-fc87-4e24-9a48-105bed2d3cd8}, ! Handle
  Key West Nas Ann Htg 99% Condns DB,     ! Name
  14.4,                                   ! Maximum Dry-Bulb Temperature {C}
  0,                                      ! Daily Dry-Bulb Temperature Range {deltaC}
  14.4,                                   ! Humidity Indicating Conditions at Maximum Dry-Bulb {BasedOnField A3}
  101241,                                 ! Barometric Pressure {Pa}
  4.5,                                    ! Wind Speed {m/s}
  20,                                     ! Wind Direction {deg}
  0,                                      ! Sky Clearness
  0,                                      ! Rain Indicator
  0,                                      ! Snow Indicator
  21,                                     ! Day of Month
  1,                                      ! Month
  WinterDesignDay,                        ! Day Type
  0,                                      ! Daylight Saving Time Indicator
  Wetbulb,                                ! Humidity Indicating Type
  ,                                       ! Humidity Indicating Day Schedule Name
  DefaultMultipliers,                     ! Dry-Bulb Temperature Range Modifier Type
  ,                                       ! Dry-Bulb Temperature Range Modifier Schedule Name
  ASHRAEClearSky;                         ! Solar Model Indicator

OS:ComponentData,
  {ac5c3f9b-718d-4f1d-9046-7d6a84deb933}, ! Handle
  Component Data 1,                       ! Name
  {851d63a9-8c07-4d45-82f4-48001ac20648}, ! UUID
  {906949e8-06c4-45b3-9822-6df73c1d76fa}, ! Version UUID
  1366306839,                             ! Creation Timestamp
  1366306839,                             ! Version Timestamp
  {43585714-fc87-4e24-9a48-105bed2d3cd8}; ! Name of Object 1

