
OS:Version,
  {4d998027-84c2-4fba-bf7c-e90c0fd9a667}, ! Handle
  0.9.3;                                  ! Version Identifier

OS:SizingPeriod:DesignDay,
  {a74acf51-0555-404a-8acf-ff3635b4c956}, ! Handle
  Fargo Ann Htg Wind 99% Condns WS=>MCDB, ! Name
  -13.1,                                  ! Maximum Dry-Bulb Temperature {C}
  0,                                      ! Daily Dry-Bulb Temperature Range {deltaC}
  -13.1,                                  ! Humidity Indicating Conditions at Maximum Dry-Bulb {BasedOnField A3}
  98076,                                  ! Barometric Pressure {Pa}
  14.2,                                   ! Wind Speed {m/s}
  200,                                    ! Wind Direction {deg}
  0,                                      ! Sky Clearness
  0,                                      ! Rain Indicator
  0,                                      ! Snow Indicator
  21,                                     ! Day of Month
  1,                                      ! Month
  WinterDesignDay,                        ! Day Type
  0,                                      ! Daylight Saving Time Indicator
  Wetbulb,                                ! Humidity Indicating Type
  ,                                       ! Humidity Indicating Day Schedule Name
  DefaultMultipliers,                     ! Dry-Bulb Temperature Range Modifier Type
  ,                                       ! Dry-Bulb Temperature Range Modifier Schedule Name
  ASHRAEClearSky;                         ! Solar Model Indicator

OS:ComponentData,
  {c8182e45-e958-4d36-bc10-f464d8993116}, ! Handle
  Component Data 1,                       ! Name
  {735435e3-34a3-4f6a-b812-6b74705b1212}, ! UUID
  {b4fb41bc-14b9-4e46-8404-030f7f702864}, ! Version UUID
  1366309023,                             ! Creation Timestamp
  1366309023,                             ! Version Timestamp
  {a74acf51-0555-404a-8acf-ff3635b4c956}; ! Name of Object 1

