
OS:Version,
  {e4c4c8bc-b24c-4ff9-bc1a-a144ae02cf07}, ! Handle
  0.9.3;                                  ! Version Identifier

OS:SizingPeriod:DesignDay,
  {35cad914-3a51-477e-88c2-64de231408d4}, ! Handle
  Eau Claire Ann Clg 1% Condns WB=>MDB,   ! Name
  28.7,                                   ! Maximum Dry-Bulb Temperature {C}
  11.5,                                   ! Daily Dry-Bulb Temperature Range {deltaC}
  23.4,                                   ! Humidity Indicating Conditions at Maximum Dry-Bulb {BasedOnField A3}
  98053,                                  ! Barometric Pressure {Pa}
  5.2,                                    ! Wind Speed {m/s}
  190,                                    ! Wind Direction {deg}
  0,                                      ! Sky Clearness
  0,                                      ! Rain Indicator
  0,                                      ! Snow Indicator
  21,                                     ! Day of Month
  7,                                      ! Month
  SummerDesignDay,                        ! Day Type
  0,                                      ! Daylight Saving Time Indicator
  Wetbulb,                                ! Humidity Indicating Type
  ,                                       ! Humidity Indicating Day Schedule Name
  DefaultMultipliers,                     ! Dry-Bulb Temperature Range Modifier Type
  ,                                       ! Dry-Bulb Temperature Range Modifier Schedule Name
  ASHRAETau,                              ! Solar Model Indicator
  ,                                       ! Beam Solar Day Schedule Name
  ,                                       ! Diffuse Solar Day Schedule Name
  0.412,                                  ! ASHRAE Taub {dimensionless}
  2.189;                                  ! ASHRAE Taud {dimensionless}

OS:ComponentData,
  {614358db-8c7b-4b8f-990b-3713260367b4}, ! Handle
  Component Data 1,                       ! Name
  {5e28c830-0a17-4712-858e-f55976a9b2c0}, ! UUID
  {3c53ab5a-a847-4311-8c55-2c580ba99401}, ! Version UUID
  1366311469,                             ! Creation Timestamp
  1366311469,                             ! Version Timestamp
  {35cad914-3a51-477e-88c2-64de231408d4}; ! Name of Object 1

