
OS:Version,
  {2b194e78-cb21-45cb-8392-0dd76bc751aa}, ! Handle
  0.9.3;                                  ! Version Identifier

OS:SizingPeriod:DesignDay,
  {57d1e6a1-36b9-4135-84ac-499215bfeecc}, ! Handle
  Dayton Wright Patterson Afb Ann Clg 1% Condns WB=>MDB, ! Name
  29.5,                                   ! Maximum Dry-Bulb Temperature {C}
  11,                                     ! Daily Dry-Bulb Temperature Range {deltaC}
  24.4,                                   ! Humidity Indicating Conditions at Maximum Dry-Bulb {BasedOnField A3}
  98358,                                  ! Barometric Pressure {Pa}
  3.9,                                    ! Wind Speed {m/s}
  240,                                    ! Wind Direction {deg}
  0,                                      ! Sky Clearness
  0,                                      ! Rain Indicator
  0,                                      ! Snow Indicator
  21,                                     ! Day of Month
  7,                                      ! Month
  SummerDesignDay,                        ! Day Type
  0,                                      ! Daylight Saving Time Indicator
  Wetbulb,                                ! Humidity Indicating Type
  ,                                       ! Humidity Indicating Day Schedule Name
  DefaultMultipliers,                     ! Dry-Bulb Temperature Range Modifier Type
  ,                                       ! Dry-Bulb Temperature Range Modifier Schedule Name
  ASHRAETau,                              ! Solar Model Indicator
  ,                                       ! Beam Solar Day Schedule Name
  ,                                       ! Diffuse Solar Day Schedule Name
  0.484,                                  ! ASHRAE Taub {dimensionless}
  1.94;                                   ! ASHRAE Taud {dimensionless}

OS:ComponentData,
  {a3acfb1a-ab68-4d52-9a02-1fdcb9c8058c}, ! Handle
  Component Data 1,                       ! Name
  {e854a5b1-1d12-43f6-bd7d-d1d6753df6a0}, ! UUID
  {a3975254-7dcb-4de3-9004-efcdb05dddaf}, ! Version UUID
  1366309813,                             ! Creation Timestamp
  1366309813,                             ! Version Timestamp
  {57d1e6a1-36b9-4135-84ac-499215bfeecc}; ! Name of Object 1

