
OS:Version,
  {6a0bd062-8829-4673-86a1-bd6189210f8e}, ! Handle
  0.9.3;                                  ! Version Identifier

OS:SizingPeriod:DesignDay,
  {39565fc9-673b-4a75-a0c7-fb3074533c20}, ! Handle
  England Afb Ann Clg .4% Condns DB=>MWB, ! Name
  35.9,                                   ! Maximum Dry-Bulb Temperature {C}
  10.3,                                   ! Daily Dry-Bulb Temperature Range {deltaC}
  25.3,                                   ! Humidity Indicating Conditions at Maximum Dry-Bulb {BasedOnField A3}
  101001,                                 ! Barometric Pressure {Pa}
  2.5,                                    ! Wind Speed {m/s}
  0,                                      ! Wind Direction {deg}
  0,                                      ! Sky Clearness
  0,                                      ! Rain Indicator
  0,                                      ! Snow Indicator
  21,                                     ! Day of Month
  7,                                      ! Month
  SummerDesignDay,                        ! Day Type
  0,                                      ! Daylight Saving Time Indicator
  Wetbulb,                                ! Humidity Indicating Type
  ,                                       ! Humidity Indicating Day Schedule Name
  DefaultMultipliers,                     ! Dry-Bulb Temperature Range Modifier Type
  ,                                       ! Dry-Bulb Temperature Range Modifier Schedule Name
  ASHRAETau,                              ! Solar Model Indicator
  ,                                       ! Beam Solar Day Schedule Name
  ,                                       ! Diffuse Solar Day Schedule Name
  0.52,                                   ! ASHRAE Taub {dimensionless}
  1.911;                                  ! ASHRAE Taud {dimensionless}

OS:ComponentData,
  {d08005d7-c02f-4eaa-9ec7-f063593c4bea}, ! Handle
  Component Data 1,                       ! Name
  {f62ee912-5e55-435e-b6d0-e72a6bf359e1}, ! UUID
  {7a1e5d92-02c4-4b0d-93de-bcb3444a5208}, ! Version UUID
  1366307691,                             ! Creation Timestamp
  1366307691,                             ! Version Timestamp
  {39565fc9-673b-4a75-a0c7-fb3074533c20}; ! Name of Object 1

