
OS:Version,
  {c4b0cac4-61ac-4c97-b9cc-641425468d3d}, ! Handle
  0.9.3;                                  ! Version Identifier

OS:SizingPeriod:DesignDay,
  {edb22b14-0e12-4a17-969f-8023a6a34d24}, ! Handle
  Columbia Ann Hum_n 99.6% Condns DP=>MCDB, ! Name
  0.6,                                    ! Maximum Dry-Bulb Temperature {C}
  0,                                      ! Daily Dry-Bulb Temperature Range {deltaC}
  -14.9,                                  ! Humidity Indicating Conditions at Maximum Dry-Bulb {BasedOnField A3}
  100499,                                 ! Barometric Pressure {Pa}
  1.9,                                    ! Wind Speed {m/s}
  270,                                    ! Wind Direction {deg}
  0,                                      ! Sky Clearness
  0,                                      ! Rain Indicator
  0,                                      ! Snow Indicator
  21,                                     ! Day of Month
  1,                                      ! Month
  WinterDesignDay,                        ! Day Type
  0,                                      ! Daylight Saving Time Indicator
  Dewpoint,                               ! Humidity Indicating Type
  ,                                       ! Humidity Indicating Day Schedule Name
  DefaultMultipliers,                     ! Dry-Bulb Temperature Range Modifier Type
  ,                                       ! Dry-Bulb Temperature Range Modifier Schedule Name
  ASHRAEClearSky;                         ! Solar Model Indicator

OS:ComponentData,
  {faed3538-6de5-48f4-965b-af13b98fa48b}, ! Handle
  Component Data 1,                       ! Name
  {56d2b4e8-7f5a-47c9-8107-a78f6dee5cba}, ! UUID
  {91c97c24-bf36-4ecb-b309-f4bd2075fe6a}, ! Version UUID
  1366310343,                             ! Creation Timestamp
  1366310343,                             ! Version Timestamp
  {edb22b14-0e12-4a17-969f-8023a6a34d24}; ! Name of Object 1

