
OS:Version,
  {552eb559-b8bd-4c9b-a031-ea009dc86d19}, ! Handle
  0.9.3;                                  ! Version Identifier

OS:SizingPeriod:DesignDay,
  {31cdda7c-b0df-4950-ad1b-17060e095882}, ! Handle
  Brainerd Wieland Ann Clg 2% Condns DB=>MWB, ! Name
  27.7,                                   ! Maximum Dry-Bulb Temperature {C}
  11.7,                                   ! Daily Dry-Bulb Temperature Range {deltaC}
  20.1,                                   ! Humidity Indicating Conditions at Maximum Dry-Bulb {BasedOnField A3}
  96912,                                  ! Barometric Pressure {Pa}
  5.2,                                    ! Wind Speed {m/s}
  200,                                    ! Wind Direction {deg}
  0,                                      ! Sky Clearness
  0,                                      ! Rain Indicator
  0,                                      ! Snow Indicator
  21,                                     ! Day of Month
  7,                                      ! Month
  SummerDesignDay,                        ! Day Type
  0,                                      ! Daylight Saving Time Indicator
  Wetbulb,                                ! Humidity Indicating Type
  ,                                       ! Humidity Indicating Day Schedule Name
  DefaultMultipliers,                     ! Dry-Bulb Temperature Range Modifier Type
  ,                                       ! Dry-Bulb Temperature Range Modifier Schedule Name
  ASHRAETau,                              ! Solar Model Indicator
  ,                                       ! Beam Solar Day Schedule Name
  ,                                       ! Diffuse Solar Day Schedule Name
  0.394,                                  ! ASHRAE Taub {dimensionless}
  2.249;                                  ! ASHRAE Taud {dimensionless}

OS:ComponentData,
  {ce977201-f307-4183-82bb-9e0fea2fd8bf}, ! Handle
  Component Data 1,                       ! Name
  {f0d6529f-67b2-4452-bf59-59363088303b}, ! UUID
  {6030aaf5-9de4-43c4-b282-b884a55529e9}, ! Version UUID
  1366308171,                             ! Creation Timestamp
  1366308171,                             ! Version Timestamp
  {31cdda7c-b0df-4950-ad1b-17060e095882}; ! Name of Object 1

