
OS:Version,
  {2c434e9e-02b7-46d4-a327-7e06b1ef9eb6}, ! Handle
  0.9.3;                                  ! Version Identifier

OS:SizingPeriod:DesignDay,
  {66779d87-7977-4885-af1c-6326d042a0d3}, ! Handle
  Baton Rouge Ann Htg Wind 99% Condns WS=>MCDB, ! Name
  15.5,                                   ! Maximum Dry-Bulb Temperature {C}
  0,                                      ! Daily Dry-Bulb Temperature Range {deltaC}
  15.5,                                   ! Humidity Indicating Conditions at Maximum Dry-Bulb {BasedOnField A3}
  101073,                                 ! Barometric Pressure {Pa}
  8.7,                                    ! Wind Speed {m/s}
  0,                                      ! Wind Direction {deg}
  0,                                      ! Sky Clearness
  0,                                      ! Rain Indicator
  0,                                      ! Snow Indicator
  21,                                     ! Day of Month
  1,                                      ! Month
  WinterDesignDay,                        ! Day Type
  0,                                      ! Daylight Saving Time Indicator
  Wetbulb,                                ! Humidity Indicating Type
  ,                                       ! Humidity Indicating Day Schedule Name
  DefaultMultipliers,                     ! Dry-Bulb Temperature Range Modifier Type
  ,                                       ! Dry-Bulb Temperature Range Modifier Schedule Name
  ASHRAEClearSky;                         ! Solar Model Indicator

OS:ComponentData,
  {b446c730-c486-4f84-b560-db14c3fc383a}, ! Handle
  Component Data 1,                       ! Name
  {62a71cf4-d352-47ba-abae-9100977c0d7e}, ! UUID
  {5089e28f-468d-4541-ad75-8a54a2ba4e7f}, ! Version UUID
  1366307703,                             ! Creation Timestamp
  1366307703,                             ! Version Timestamp
  {66779d87-7977-4885-af1c-6326d042a0d3}; ! Name of Object 1

