
OS:Version,
  {da9df0ff-0684-4c2c-b9ce-11eced0baaff}, ! Handle
  0.9.3;                                  ! Version Identifier

OS:SizingPeriod:DesignDay,
  {4558236d-2d69-4c1b-b630-e2ef34600a65}, ! Handle
  Fremont Muni Arpt Ann Hum_n 99% Condns DP=>MCDB, ! Name
  -16.3,                                  ! Maximum Dry-Bulb Temperature {C}
  0,                                      ! Daily Dry-Bulb Temperature Range {deltaC}
  -21.1,                                  ! Humidity Indicating Conditions at Maximum Dry-Bulb {BasedOnField A3}
  96854,                                  ! Barometric Pressure {Pa}
  3.6,                                    ! Wind Speed {m/s}
  310,                                    ! Wind Direction {deg}
  0,                                      ! Sky Clearness
  0,                                      ! Rain Indicator
  0,                                      ! Snow Indicator
  21,                                     ! Day of Month
  1,                                      ! Month
  WinterDesignDay,                        ! Day Type
  0,                                      ! Daylight Saving Time Indicator
  Dewpoint,                               ! Humidity Indicating Type
  ,                                       ! Humidity Indicating Day Schedule Name
  DefaultMultipliers,                     ! Dry-Bulb Temperature Range Modifier Type
  ,                                       ! Dry-Bulb Temperature Range Modifier Schedule Name
  ASHRAEClearSky;                         ! Solar Model Indicator

OS:ComponentData,
  {f37f3034-8723-4de2-876a-feef479a00b4}, ! Handle
  Component Data 1,                       ! Name
  {298632f0-8227-4851-b45c-08f85e9f169b}, ! UUID
  {cb993a23-feee-4e13-acb6-7eb125195b40}, ! Version UUID
  1366309103,                             ! Creation Timestamp
  1366309103,                             ! Version Timestamp
  {4558236d-2d69-4c1b-b630-e2ef34600a65}; ! Name of Object 1

