
OS:Version,
  {1912d5e8-7cac-406d-9255-47d949f141dc}, ! Handle
  0.9.3;                                  ! Version Identifier

OS:SizingPeriod:DesignDay,
  {bfa0894b-c06a-41d9-b451-f3f3b1e7f2ea}, ! Handle
  Albany Ann Clg 2% Condns DP=>MDB,       ! Name
  25.1,                                   ! Maximum Dry-Bulb Temperature {C}
  11.1,                                   ! Daily Dry-Bulb Temperature Range {deltaC}
  21.1,                                   ! Humidity Indicating Conditions at Maximum Dry-Bulb {BasedOnField A3}
  100260,                                 ! Barometric Pressure {Pa}
  4.4,                                    ! Wind Speed {m/s}
  180,                                    ! Wind Direction {deg}
  0,                                      ! Sky Clearness
  0,                                      ! Rain Indicator
  0,                                      ! Snow Indicator
  21,                                     ! Day of Month
  7,                                      ! Month
  SummerDesignDay,                        ! Day Type
  0,                                      ! Daylight Saving Time Indicator
  Dewpoint,                               ! Humidity Indicating Type
  ,                                       ! Humidity Indicating Day Schedule Name
  DefaultMultipliers,                     ! Dry-Bulb Temperature Range Modifier Type
  ,                                       ! Dry-Bulb Temperature Range Modifier Schedule Name
  ASHRAETau,                              ! Solar Model Indicator
  ,                                       ! Beam Solar Day Schedule Name
  ,                                       ! Diffuse Solar Day Schedule Name
  0.49,                                   ! ASHRAE Taub {dimensionless}
  1.923;                                  ! ASHRAE Taud {dimensionless}

OS:ComponentData,
  {47ab233f-9359-472b-a664-9868ff5ff4a7}, ! Handle
  Component Data 1,                       ! Name
  {f296f11a-9aea-4da3-ae0d-d348ac125a24}, ! UUID
  {e95bc43d-8142-435d-8b82-264d830274d6}, ! Version UUID
  1366309580,                             ! Creation Timestamp
  1366309580,                             ! Version Timestamp
  {bfa0894b-c06a-41d9-b451-f3f3b1e7f2ea}; ! Name of Object 1

