
OS:Version,
  {eed979c4-b27b-45a2-98ff-7ac397cd1240}, ! Handle
  0.9.3;                                  ! Version Identifier

OS:SizingPeriod:DesignDay,
  {fc40ce4e-24dd-4d25-a245-4896989359f0}, ! Handle
  Golden Tri Awos Ann Clg 1% Condns DB=>MWB, ! Name
  34.1,                                   ! Maximum Dry-Bulb Temperature {C}
  11.4,                                   ! Daily Dry-Bulb Temperature Range {deltaC}
  24.9,                                   ! Humidity Indicating Conditions at Maximum Dry-Bulb {BasedOnField A3}
  100368,                                 ! Barometric Pressure {Pa}
  2.3,                                    ! Wind Speed {m/s}
  0,                                      ! Wind Direction {deg}
  0,                                      ! Sky Clearness
  0,                                      ! Rain Indicator
  0,                                      ! Snow Indicator
  21,                                     ! Day of Month
  7,                                      ! Month
  SummerDesignDay,                        ! Day Type
  0,                                      ! Daylight Saving Time Indicator
  Wetbulb,                                ! Humidity Indicating Type
  ,                                       ! Humidity Indicating Day Schedule Name
  DefaultMultipliers,                     ! Dry-Bulb Temperature Range Modifier Type
  ,                                       ! Dry-Bulb Temperature Range Modifier Schedule Name
  ASHRAETau,                              ! Solar Model Indicator
  ,                                       ! Beam Solar Day Schedule Name
  ,                                       ! Diffuse Solar Day Schedule Name
  0.565,                                  ! ASHRAE Taub {dimensionless}
  1.764;                                  ! ASHRAE Taud {dimensionless}

OS:ComponentData,
  {176ed9ef-3c9f-4f0c-81a3-fe6956816113}, ! Handle
  Component Data 1,                       ! Name
  {540b27f8-2e29-4ec8-a3ee-76e4812251bb}, ! UUID
  {c3901e88-db19-4d2e-84f6-81a7ab5aa5cd}, ! Version UUID
  1366308618,                             ! Creation Timestamp
  1366308618,                             ! Version Timestamp
  {fc40ce4e-24dd-4d25-a245-4896989359f0}; ! Name of Object 1

