
OS:Version,
  {421011a7-cdb3-4d46-bc58-a01489cc7bed}, ! Handle
  0.9.3;                                  ! Version Identifier

OS:SizingPeriod:DesignDay,
  {fc76456b-31ea-422d-b486-be70c19ce95b}, ! Handle
  Binghamton Ann Clg .4% Condns DB=>MWB,  ! Name
  29.7,                                   ! Maximum Dry-Bulb Temperature {C}
  9.7,                                    ! Daily Dry-Bulb Temperature Range {deltaC}
  21.1,                                   ! Humidity Indicating Conditions at Maximum Dry-Bulb {BasedOnField A3}
  95495,                                  ! Barometric Pressure {Pa}
  4.6,                                    ! Wind Speed {m/s}
  240,                                    ! Wind Direction {deg}
  0,                                      ! Sky Clearness
  0,                                      ! Rain Indicator
  0,                                      ! Snow Indicator
  21,                                     ! Day of Month
  7,                                      ! Month
  SummerDesignDay,                        ! Day Type
  0,                                      ! Daylight Saving Time Indicator
  Wetbulb,                                ! Humidity Indicating Type
  ,                                       ! Humidity Indicating Day Schedule Name
  DefaultMultipliers,                     ! Dry-Bulb Temperature Range Modifier Type
  ,                                       ! Dry-Bulb Temperature Range Modifier Schedule Name
  ASHRAETau,                              ! Solar Model Indicator
  ,                                       ! Beam Solar Day Schedule Name
  ,                                       ! Diffuse Solar Day Schedule Name
  0.452,                                  ! ASHRAE Taub {dimensionless}
  2.004;                                  ! ASHRAE Taud {dimensionless}

OS:ComponentData,
  {4f61c183-b258-4fa1-af8c-30028e5a21d1}, ! Handle
  Component Data 1,                       ! Name
  {f4e8d8b1-a321-47ac-be74-ce7ec2feb581}, ! UUID
  {16eebceb-3dd7-4746-b0f6-82e8ab9becc4}, ! Version UUID
  1366309589,                             ! Creation Timestamp
  1366309589,                             ! Version Timestamp
  {fc76456b-31ea-422d-b486-be70c19ce95b}; ! Name of Object 1

