
OS:Version,
  {61575180-0513-4b03-b6b4-bd378953c97e}, ! Handle
  0.9.3;                                  ! Version Identifier

OS:SizingPeriod:DesignDay,
  {d7d840b7-f29e-4b77-a33f-ebeddb266863}, ! Handle
  Glasgow Ann Clg .4% Condns DB=>MWB,     ! Name
  35,                                     ! Maximum Dry-Bulb Temperature {C}
  14.5,                                   ! Daily Dry-Bulb Temperature Range {deltaC}
  18.3,                                   ! Humidity Indicating Conditions at Maximum Dry-Bulb {BasedOnField A3}
  93194,                                  ! Barometric Pressure {Pa}
  5.4,                                    ! Wind Speed {m/s}
  150,                                    ! Wind Direction {deg}
  0,                                      ! Sky Clearness
  0,                                      ! Rain Indicator
  0,                                      ! Snow Indicator
  21,                                     ! Day of Month
  7,                                      ! Month
  SummerDesignDay,                        ! Day Type
  0,                                      ! Daylight Saving Time Indicator
  Wetbulb,                                ! Humidity Indicating Type
  ,                                       ! Humidity Indicating Day Schedule Name
  DefaultMultipliers,                     ! Dry-Bulb Temperature Range Modifier Type
  ,                                       ! Dry-Bulb Temperature Range Modifier Schedule Name
  ASHRAETau,                              ! Solar Model Indicator
  ,                                       ! Beam Solar Day Schedule Name
  ,                                       ! Diffuse Solar Day Schedule Name
  0.424,                                  ! ASHRAE Taub {dimensionless}
  2.044;                                  ! ASHRAE Taud {dimensionless}

OS:ComponentData,
  {a8a7ef5e-29c9-4084-99f3-19d0cdbd9e4d}, ! Handle
  Component Data 1,                       ! Name
  {91996cd5-94c7-407c-b7c9-bd27bfd7d612}, ! UUID
  {7f341807-49f7-4e97-be53-71c75ab01355}, ! Version UUID
  1366308759,                             ! Creation Timestamp
  1366308759,                             ! Version Timestamp
  {d7d840b7-f29e-4b77-a33f-ebeddb266863}; ! Name of Object 1

