
OS:Version,
  {0086ec12-33a3-457c-9c84-c729402dabcc}, ! Handle
  0.9.3;                                  ! Version Identifier

OS:SizingPeriod:DesignDay,
  {eaba8051-0663-47e1-b0c8-fa06cdf7668b}, ! Handle
  Gulkana Ann Clg 2% Condns Enth=>MDB,    ! Name
  20,                                     ! Maximum Dry-Bulb Temperature {C}
  11.7,                                   ! Daily Dry-Bulb Temperature Range {deltaC}
  38000,                                  ! Humidity Indicating Conditions at Maximum Dry-Bulb {BasedOnField A3}
  95679,                                  ! Barometric Pressure {Pa}
  2.6,                                    ! Wind Speed {m/s}
  160,                                    ! Wind Direction {deg}
  0,                                      ! Sky Clearness
  0,                                      ! Rain Indicator
  0,                                      ! Snow Indicator
  21,                                     ! Day of Month
  7,                                      ! Month
  SummerDesignDay,                        ! Day Type
  0,                                      ! Daylight Saving Time Indicator
  Enthalpy,                               ! Humidity Indicating Type
  ,                                       ! Humidity Indicating Day Schedule Name
  DefaultMultipliers,                     ! Dry-Bulb Temperature Range Modifier Type
  ,                                       ! Dry-Bulb Temperature Range Modifier Schedule Name
  ASHRAETau,                              ! Solar Model Indicator
  ,                                       ! Beam Solar Day Schedule Name
  ,                                       ! Diffuse Solar Day Schedule Name
  0.385,                                  ! ASHRAE Taub {dimensionless}
  2.111;                                  ! ASHRAE Taud {dimensionless}

OS:ComponentData,
  {ab60537d-91a4-4c23-b53c-a6b28141d8b0}, ! Handle
  Component Data 1,                       ! Name
  {a8fb18c1-7fc4-4dd5-adf8-b128fc44e9ec}, ! UUID
  {6014c56e-f182-4d38-bd58-ec21e718a90d}, ! Version UUID
  1366305283,                             ! Creation Timestamp
  1366305283,                             ! Version Timestamp
  {eaba8051-0663-47e1-b0c8-fa06cdf7668b}; ! Name of Object 1

