
OS:Version,
  {17727e50-f233-47f7-ab57-f68f4f8a4430}, ! Handle
  0.9.3;                                  ! Version Identifier

OS:SizingPeriod:DesignDay,
  {bffbd744-9415-49a6-bd72-d456c0588072}, ! Handle
  Findlay Airport Ann Htg Wind 99.6% Condns WS=>MCDB, ! Name
  2.4,                                    ! Maximum Dry-Bulb Temperature {C}
  0,                                      ! Daily Dry-Bulb Temperature Range {deltaC}
  2.4,                                    ! Humidity Indicating Conditions at Maximum Dry-Bulb {BasedOnField A3}
  98428,                                  ! Barometric Pressure {Pa}
  12.5,                                   ! Wind Speed {m/s}
  250,                                    ! Wind Direction {deg}
  0,                                      ! Sky Clearness
  0,                                      ! Rain Indicator
  0,                                      ! Snow Indicator
  21,                                     ! Day of Month
  1,                                      ! Month
  WinterDesignDay,                        ! Day Type
  0,                                      ! Daylight Saving Time Indicator
  Wetbulb,                                ! Humidity Indicating Type
  ,                                       ! Humidity Indicating Day Schedule Name
  DefaultMultipliers,                     ! Dry-Bulb Temperature Range Modifier Type
  ,                                       ! Dry-Bulb Temperature Range Modifier Schedule Name
  ASHRAEClearSky;                         ! Solar Model Indicator

OS:ComponentData,
  {8e439c27-8f62-44cd-bb40-259370d5d6de}, ! Handle
  Component Data 1,                       ! Name
  {90a0f685-53a2-48c9-8a48-03bf35ad763d}, ! UUID
  {13377f15-07a3-49e7-8555-e669d1159f05}, ! Version UUID
  1366309825,                             ! Creation Timestamp
  1366309825,                             ! Version Timestamp
  {bffbd744-9415-49a6-bd72-d456c0588072}; ! Name of Object 1

