
OS:Version,
  {469f4958-e91a-49a3-ad79-c2f46603fbb0}, ! Handle
  0.9.3;                                  ! Version Identifier

OS:SizingPeriod:DesignDay,
  {ac9a83d9-532a-4e03-b3c1-e24be178ad36}, ! Handle
  Lake Charles Ann Hum_n 99% Condns DP=>MCDB, ! Name
  5.3,                                    ! Maximum Dry-Bulb Temperature {C}
  0,                                      ! Daily Dry-Bulb Temperature Range {deltaC}
  -5.8,                                   ! Humidity Indicating Conditions at Maximum Dry-Bulb {BasedOnField A3}
  101205,                                 ! Barometric Pressure {Pa}
  3.8,                                    ! Wind Speed {m/s}
  20,                                     ! Wind Direction {deg}
  0,                                      ! Sky Clearness
  0,                                      ! Rain Indicator
  0,                                      ! Snow Indicator
  21,                                     ! Day of Month
  1,                                      ! Month
  WinterDesignDay,                        ! Day Type
  0,                                      ! Daylight Saving Time Indicator
  Dewpoint,                               ! Humidity Indicating Type
  ,                                       ! Humidity Indicating Day Schedule Name
  DefaultMultipliers,                     ! Dry-Bulb Temperature Range Modifier Type
  ,                                       ! Dry-Bulb Temperature Range Modifier Schedule Name
  ASHRAEClearSky;                         ! Solar Model Indicator

OS:ComponentData,
  {b7036914-64c7-4655-833a-4433aa5c8df9}, ! Handle
  Component Data 1,                       ! Name
  {a08f565c-e86c-49b9-ac90-45386f840cd9}, ! UUID
  {cbff371d-7a27-4d6d-89a8-594e86b8fe01}, ! Version UUID
  1366307728,                             ! Creation Timestamp
  1366307728,                             ! Version Timestamp
  {ac9a83d9-532a-4e03-b3c1-e24be178ad36}; ! Name of Object 1

