
OS:Version,
  {fab4e960-12b3-4722-b9e5-a4c99e3a5380}, ! Handle
  0.9.3;                                  ! Version Identifier

OS:SizingPeriod:DesignDay,
  {f9b783d6-618c-4541-b179-fdde7ac7b8f0}, ! Handle
  Columbus Muni Ann Hum_n 99% Condns DP=>MCDB, ! Name
  -17.9,                                  ! Maximum Dry-Bulb Temperature {C}
  0,                                      ! Daily Dry-Bulb Temperature Range {deltaC}
  -22.2,                                  ! Humidity Indicating Conditions at Maximum Dry-Bulb {BasedOnField A3}
  96023,                                  ! Barometric Pressure {Pa}
  3.6,                                    ! Wind Speed {m/s}
  320,                                    ! Wind Direction {deg}
  0,                                      ! Sky Clearness
  0,                                      ! Rain Indicator
  0,                                      ! Snow Indicator
  21,                                     ! Day of Month
  1,                                      ! Month
  WinterDesignDay,                        ! Day Type
  0,                                      ! Daylight Saving Time Indicator
  Dewpoint,                               ! Humidity Indicating Type
  ,                                       ! Humidity Indicating Day Schedule Name
  DefaultMultipliers,                     ! Dry-Bulb Temperature Range Modifier Type
  ,                                       ! Dry-Bulb Temperature Range Modifier Schedule Name
  ASHRAEClearSky;                         ! Solar Model Indicator

OS:ComponentData,
  {51524f23-9369-47b3-853e-97b2eb59a66c}, ! Handle
  Component Data 1,                       ! Name
  {13adf43e-cf36-4f5f-9136-b1a034d820e4}, ! UUID
  {1ad8bcfe-c892-48f8-88c2-8c989ff15d41}, ! Version UUID
  1366309097,                             ! Creation Timestamp
  1366309097,                             ! Version Timestamp
  {f9b783d6-618c-4541-b179-fdde7ac7b8f0}; ! Name of Object 1

