
OS:Version,
  {5eabb427-294d-45fe-a7aa-0b26dbc31b4b}, ! Handle
  0.9.3;                                  ! Version Identifier

OS:SizingPeriod:DesignDay,
  {53490127-ca00-4362-a826-35d4629df82a}, ! Handle
  Burlington International Ap Ann Clg .4% Condns DB=>MWB, ! Name
  31.3,                                   ! Maximum Dry-Bulb Temperature {C}
  10.7,                                   ! Daily Dry-Bulb Temperature Range {deltaC}
  21.7,                                   ! Humidity Indicating Conditions at Maximum Dry-Bulb {BasedOnField A3}
  100118,                                 ! Barometric Pressure {Pa}
  4.5,                                    ! Wind Speed {m/s}
  170,                                    ! Wind Direction {deg}
  0,                                      ! Sky Clearness
  0,                                      ! Rain Indicator
  0,                                      ! Snow Indicator
  21,                                     ! Day of Month
  7,                                      ! Month
  SummerDesignDay,                        ! Day Type
  0,                                      ! Daylight Saving Time Indicator
  Wetbulb,                                ! Humidity Indicating Type
  ,                                       ! Humidity Indicating Day Schedule Name
  DefaultMultipliers,                     ! Dry-Bulb Temperature Range Modifier Type
  ,                                       ! Dry-Bulb Temperature Range Modifier Schedule Name
  ASHRAETau,                              ! Solar Model Indicator
  ,                                       ! Beam Solar Day Schedule Name
  ,                                       ! Diffuse Solar Day Schedule Name
  0.459,                                  ! ASHRAE Taub {dimensionless}
  2.002;                                  ! ASHRAE Taud {dimensionless}

OS:ComponentData,
  {a3f3b020-4d9b-480d-9952-7dfa8110b57c}, ! Handle
  Component Data 1,                       ! Name
  {9c075726-ea72-493c-9fb0-6b6f44299d98}, ! UUID
  {1ca5fd2d-9161-4bd0-b510-8404b3092886}, ! Version UUID
  1366311246,                             ! Creation Timestamp
  1366311246,                             ! Version Timestamp
  {53490127-ca00-4362-a826-35d4629df82a}; ! Name of Object 1

