
OS:Version,
  {cc2bf127-0aa8-4910-aad4-ccc88ca183db}, ! Handle
  0.9.3;                                  ! Version Identifier

OS:SizingPeriod:DesignDay,
  {e8342617-e291-444e-babb-36b907767450}, ! Handle
  Leesburg Godfrey Ann Htg 99.6% Condns DB, ! Name
  -9.9,                                   ! Maximum Dry-Bulb Temperature {C}
  0,                                      ! Daily Dry-Bulb Temperature Range {deltaC}
  -9.9,                                   ! Humidity Indicating Conditions at Maximum Dry-Bulb {BasedOnField A3}
  99904,                                  ! Barometric Pressure {Pa}
  2.9,                                    ! Wind Speed {m/s}
  330,                                    ! Wind Direction {deg}
  0,                                      ! Sky Clearness
  0,                                      ! Rain Indicator
  0,                                      ! Snow Indicator
  21,                                     ! Day of Month
  1,                                      ! Month
  WinterDesignDay,                        ! Day Type
  0,                                      ! Daylight Saving Time Indicator
  Wetbulb,                                ! Humidity Indicating Type
  ,                                       ! Humidity Indicating Day Schedule Name
  DefaultMultipliers,                     ! Dry-Bulb Temperature Range Modifier Type
  ,                                       ! Dry-Bulb Temperature Range Modifier Schedule Name
  ASHRAEClearSky;                         ! Solar Model Indicator

OS:ComponentData,
  {7341cf5b-0884-4207-ae76-853fd2b104a3}, ! Handle
  Component Data 1,                       ! Name
  {5210ff17-6e72-448f-9c16-33d52f301761}, ! UUID
  {08a4a65b-dc4a-42b5-9863-c3d663dd81ee}, ! Version UUID
  1366311075,                             ! Creation Timestamp
  1366311075,                             ! Version Timestamp
  {e8342617-e291-444e-babb-36b907767450}; ! Name of Object 1

