
OS:Version,
  {a3aaa1b8-8d44-4a5e-aed2-74fea5c3007b}, ! Handle
  0.9.3;                                  ! Version Identifier

OS:SizingPeriod:DesignDay,
  {65b59eae-42c5-41cb-8138-c0aece373d9e}, ! Handle
  Galveston Scholes Ann Htg Wind 99% Condns WS=>MCDB, ! Name
  7.9,                                    ! Maximum Dry-Bulb Temperature {C}
  0,                                      ! Daily Dry-Bulb Temperature Range {deltaC}
  7.9,                                    ! Humidity Indicating Conditions at Maximum Dry-Bulb {BasedOnField A3}
  101133,                                 ! Barometric Pressure {Pa}
  11.8,                                   ! Wind Speed {m/s}
  30,                                     ! Wind Direction {deg}
  0,                                      ! Sky Clearness
  0,                                      ! Rain Indicator
  0,                                      ! Snow Indicator
  21,                                     ! Day of Month
  1,                                      ! Month
  WinterDesignDay,                        ! Day Type
  0,                                      ! Daylight Saving Time Indicator
  Wetbulb,                                ! Humidity Indicating Type
  ,                                       ! Humidity Indicating Day Schedule Name
  DefaultMultipliers,                     ! Dry-Bulb Temperature Range Modifier Type
  ,                                       ! Dry-Bulb Temperature Range Modifier Schedule Name
  ASHRAEClearSky;                         ! Solar Model Indicator

OS:ComponentData,
  {da5c948b-da93-4779-8853-21626e797188}, ! Handle
  Component Data 1,                       ! Name
  {617300b9-7259-435d-92f3-1ec17d8c5627}, ! UUID
  {ad2b613b-aee3-413e-946b-a8b08f20c7b0}, ! Version UUID
  1366310717,                             ! Creation Timestamp
  1366310717,                             ! Version Timestamp
  {65b59eae-42c5-41cb-8138-c0aece373d9e}; ! Name of Object 1

