
OS:Version,
  {2001495a-07b4-49ae-b952-daedbc00f89f}, ! Handle
  0.9.3;                                  ! Version Identifier

OS:SizingPeriod:DesignDay,
  {9cb1b8f2-c56b-466b-88c9-ee79f1f16e40}, ! Handle
  Anaktuvuk Pass Ann Clg 2% Condns DB=>MWB, ! Name
  17.5,                                   ! Maximum Dry-Bulb Temperature {C}
  9.1,                                    ! Daily Dry-Bulb Temperature Range {deltaC}
  10.8,                                   ! Humidity Indicating Conditions at Maximum Dry-Bulb {BasedOnField A3}
  93677,                                  ! Barometric Pressure {Pa}
  3.6,                                    ! Wind Speed {m/s}
  40,                                     ! Wind Direction {deg}
  0,                                      ! Sky Clearness
  0,                                      ! Rain Indicator
  0,                                      ! Snow Indicator
  21,                                     ! Day of Month
  7,                                      ! Month
  SummerDesignDay,                        ! Day Type
  0,                                      ! Daylight Saving Time Indicator
  Wetbulb,                                ! Humidity Indicating Type
  ,                                       ! Humidity Indicating Day Schedule Name
  DefaultMultipliers,                     ! Dry-Bulb Temperature Range Modifier Type
  ,                                       ! Dry-Bulb Temperature Range Modifier Schedule Name
  ASHRAETau,                              ! Solar Model Indicator
  ,                                       ! Beam Solar Day Schedule Name
  ,                                       ! Diffuse Solar Day Schedule Name
  0.361,                                  ! ASHRAE Taub {dimensionless}
  2.199;                                  ! ASHRAE Taud {dimensionless}

OS:ComponentData,
  {47c0b25b-b9d5-4b4e-884d-6c8ace2bcf5d}, ! Handle
  Component Data 1,                       ! Name
  {bb17c000-0fff-4dbf-9dee-524ec5c70937}, ! UUID
  {b72a975a-a957-4bd3-944a-6772d572114d}, ! Version UUID
  1366304689,                             ! Creation Timestamp
  1366304689,                             ! Version Timestamp
  {9cb1b8f2-c56b-466b-88c9-ee79f1f16e40}; ! Name of Object 1

