
OS:Version,
  {5336723e-461c-4261-9bcc-1e8c52826cd9}, ! Handle
  0.9.3;                                  ! Version Identifier

OS:SizingPeriod:DesignDay,
  {5d005a93-8ff7-40c6-a8e7-372c3cc8dfbb}, ! Handle
  Clinton Sherman Ann Hum_n 99.6% Condns DP=>MCDB, ! Name
  -4.7,                                   ! Maximum Dry-Bulb Temperature {C}
  0,                                      ! Daily Dry-Bulb Temperature Range {deltaC}
  -16.6,                                  ! Humidity Indicating Conditions at Maximum Dry-Bulb {BasedOnField A3}
  94480,                                  ! Barometric Pressure {Pa}
  5.2,                                    ! Wind Speed {m/s}
  10,                                     ! Wind Direction {deg}
  0,                                      ! Sky Clearness
  0,                                      ! Rain Indicator
  0,                                      ! Snow Indicator
  21,                                     ! Day of Month
  1,                                      ! Month
  WinterDesignDay,                        ! Day Type
  0,                                      ! Daylight Saving Time Indicator
  Dewpoint,                               ! Humidity Indicating Type
  ,                                       ! Humidity Indicating Day Schedule Name
  DefaultMultipliers,                     ! Dry-Bulb Temperature Range Modifier Type
  ,                                       ! Dry-Bulb Temperature Range Modifier Schedule Name
  ASHRAEClearSky;                         ! Solar Model Indicator

OS:ComponentData,
  {b2b37517-55b4-4be7-813e-984a1663a3d0}, ! Handle
  Component Data 1,                       ! Name
  {e98f9248-0bce-44e4-9ef2-434a030fd1d0}, ! UUID
  {20158150-15a9-43fc-82df-03785cdb7fe8}, ! Version UUID
  1366309883,                             ! Creation Timestamp
  1366309883,                             ! Version Timestamp
  {5d005a93-8ff7-40c6-a8e7-372c3cc8dfbb}; ! Name of Object 1

