
OS:Version,
  {c1d68564-6eb7-4126-ba8c-5db2a5800799}, ! Handle
  0.9.3;                                  ! Version Identifier

OS:SizingPeriod:DesignDay,
  {9fa3c9b9-dcf7-4128-a809-159237f8f802}, ! Handle
  Glasgow Intl Arpt Ann Clg .4% Condns WB=>MDB, ! Name
  29.9,                                   ! Maximum Dry-Bulb Temperature {C}
  14.5,                                   ! Daily Dry-Bulb Temperature Range {deltaC}
  20.4,                                   ! Humidity Indicating Conditions at Maximum Dry-Bulb {BasedOnField A3}
  93205,                                  ! Barometric Pressure {Pa}
  5.4,                                    ! Wind Speed {m/s}
  150,                                    ! Wind Direction {deg}
  0,                                      ! Sky Clearness
  0,                                      ! Rain Indicator
  0,                                      ! Snow Indicator
  21,                                     ! Day of Month
  7,                                      ! Month
  SummerDesignDay,                        ! Day Type
  0,                                      ! Daylight Saving Time Indicator
  Wetbulb,                                ! Humidity Indicating Type
  ,                                       ! Humidity Indicating Day Schedule Name
  DefaultMultipliers,                     ! Dry-Bulb Temperature Range Modifier Type
  ,                                       ! Dry-Bulb Temperature Range Modifier Schedule Name
  ASHRAETau,                              ! Solar Model Indicator
  ,                                       ! Beam Solar Day Schedule Name
  ,                                       ! Diffuse Solar Day Schedule Name
  0.424,                                  ! ASHRAE Taub {dimensionless}
  2.044;                                  ! ASHRAE Taud {dimensionless}

OS:ComponentData,
  {dd2882ee-543c-4e28-b4ec-52fde60accf7}, ! Handle
  Component Data 1,                       ! Name
  {bca28128-5f65-4586-a028-28a113a35e3f}, ! UUID
  {b1d0edf5-7177-4409-9fe8-2b2a6600dbcf}, ! Version UUID
  1366308763,                             ! Creation Timestamp
  1366308763,                             ! Version Timestamp
  {9fa3c9b9-dcf7-4128-a809-159237f8f802}; ! Name of Object 1

