
OS:Version,
  {915e8b31-9211-4998-b35e-37de9df865a2}, ! Handle
  0.9.3;                                  ! Version Identifier

OS:SizingPeriod:DesignDay,
  {240e056c-19e7-4b70-898e-14db21ba2323}, ! Handle
  Aurora State Ann Htg Wind 99% Condns WS=>MCDB, ! Name
  10.1,                                   ! Maximum Dry-Bulb Temperature {C}
  0,                                      ! Daily Dry-Bulb Temperature Range {deltaC}
  10.1,                                   ! Humidity Indicating Conditions at Maximum Dry-Bulb {BasedOnField A3}
  100606,                                 ! Barometric Pressure {Pa}
  9.2,                                    ! Wind Speed {m/s}
  0,                                      ! Wind Direction {deg}
  0,                                      ! Sky Clearness
  0,                                      ! Rain Indicator
  0,                                      ! Snow Indicator
  21,                                     ! Day of Month
  12,                                     ! Month
  WinterDesignDay,                        ! Day Type
  0,                                      ! Daylight Saving Time Indicator
  Wetbulb,                                ! Humidity Indicating Type
  ,                                       ! Humidity Indicating Day Schedule Name
  DefaultMultipliers,                     ! Dry-Bulb Temperature Range Modifier Type
  ,                                       ! Dry-Bulb Temperature Range Modifier Schedule Name
  ASHRAEClearSky;                         ! Solar Model Indicator

OS:ComponentData,
  {6bc51329-8663-46ad-adef-fe1a49e68499}, ! Handle
  Component Data 1,                       ! Name
  {7828917a-389d-4274-8f8e-f1e0100fa6ea}, ! UUID
  {f105252f-84cf-488f-8004-4ff6d56622ae}, ! Version UUID
  1366309981,                             ! Creation Timestamp
  1366309981,                             ! Version Timestamp
  {240e056c-19e7-4b70-898e-14db21ba2323}; ! Name of Object 1

