
OS:Version,
  {94d4e1f7-71a7-4e06-9819-2978bbad52c6}, ! Handle
  0.9.3;                                  ! Version Identifier

OS:SizingPeriod:DesignDay,
  {339b475c-c1e4-4f23-963d-ef3986a4cb3f}, ! Handle
  Crescent City Faa Ai Ann Clg 2% Condns Enth=>MDB, ! Name
  17.2,                                   ! Maximum Dry-Bulb Temperature {C}
  5.7,                                    ! Daily Dry-Bulb Temperature Range {deltaC}
  41300,                                  ! Humidity Indicating Conditions at Maximum Dry-Bulb {BasedOnField A3}
  101121,                                 ! Barometric Pressure {Pa}
  3.9,                                    ! Wind Speed {m/s}
  310,                                    ! Wind Direction {deg}
  0,                                      ! Sky Clearness
  0,                                      ! Rain Indicator
  0,                                      ! Snow Indicator
  21,                                     ! Day of Month
  8,                                      ! Month
  SummerDesignDay,                        ! Day Type
  0,                                      ! Daylight Saving Time Indicator
  Enthalpy,                               ! Humidity Indicating Type
  ,                                       ! Humidity Indicating Day Schedule Name
  DefaultMultipliers,                     ! Dry-Bulb Temperature Range Modifier Type
  ,                                       ! Dry-Bulb Temperature Range Modifier Schedule Name
  ASHRAETau,                              ! Solar Model Indicator
  ,                                       ! Beam Solar Day Schedule Name
  ,                                       ! Diffuse Solar Day Schedule Name
  0.362,                                  ! ASHRAE Taub {dimensionless}
  2.529;                                  ! ASHRAE Taud {dimensionless}

OS:ComponentData,
  {b970532b-c90c-414d-acb1-422d79cf36f5}, ! Handle
  Component Data 1,                       ! Name
  {3378c7b9-3f86-4515-a179-61857bc5f8f2}, ! UUID
  {a39ceca4-611c-40ae-b778-ea810c638bfd}, ! Version UUID
  1366306419,                             ! Creation Timestamp
  1366306419,                             ! Version Timestamp
  {339b475c-c1e4-4f23-963d-ef3986a4cb3f}; ! Name of Object 1

