
OS:Version,
  {8e0b735b-b8ad-4c0c-94a0-91415940d30d}, ! Handle
  0.9.3;                                  ! Version Identifier

OS:SizingPeriod:DesignDay,
  {50bd02f1-8567-4f6d-bc83-737cde31e63d}, ! Handle
  Cheyenne Municipal Arpt Ann Hum_n 99.6% Condns DP=>MCDB, ! Name
  -19.1,                                  ! Maximum Dry-Bulb Temperature {C}
  0,                                      ! Daily Dry-Bulb Temperature Range {deltaC}
  -25.1,                                  ! Humidity Indicating Conditions at Maximum Dry-Bulb {BasedOnField A3}
  80817,                                  ! Barometric Pressure {Pa}
  4.2,                                    ! Wind Speed {m/s}
  0,                                      ! Wind Direction {deg}
  0,                                      ! Sky Clearness
  0,                                      ! Rain Indicator
  0,                                      ! Snow Indicator
  21,                                     ! Day of Month
  12,                                     ! Month
  WinterDesignDay,                        ! Day Type
  0,                                      ! Daylight Saving Time Indicator
  Dewpoint,                               ! Humidity Indicating Type
  ,                                       ! Humidity Indicating Day Schedule Name
  DefaultMultipliers,                     ! Dry-Bulb Temperature Range Modifier Type
  ,                                       ! Dry-Bulb Temperature Range Modifier Schedule Name
  ASHRAEClearSky;                         ! Solar Model Indicator

OS:ComponentData,
  {ed72e341-62ec-4a01-a03e-fd20859901bc}, ! Handle
  Component Data 1,                       ! Name
  {e165a48a-6a7c-44d9-b503-495de77f3a39}, ! UUID
  {1fb0066e-ee0d-4417-a233-900cb9414981}, ! Version UUID
  1366311710,                             ! Creation Timestamp
  1366311710,                             ! Version Timestamp
  {50bd02f1-8567-4f6d-bc83-737cde31e63d}; ! Name of Object 1

