
OS:Version,
  {e2ad31ea-b9f0-47ca-9a33-daee051db23a}, ! Handle
  0.9.3;                                  ! Version Identifier

OS:SizingPeriod:DesignDay,
  {3d03b69a-780a-429c-aa77-521e6c995986}, ! Handle
  Charles City Ann Htg 99% Condns DB,     ! Name
  -19.6,                                  ! Maximum Dry-Bulb Temperature {C}
  0,                                      ! Daily Dry-Bulb Temperature Range {deltaC}
  -19.6,                                  ! Humidity Indicating Conditions at Maximum Dry-Bulb {BasedOnField A3}
  97272,                                  ! Barometric Pressure {Pa}
  3.8,                                    ! Wind Speed {m/s}
  310,                                    ! Wind Direction {deg}
  0,                                      ! Sky Clearness
  0,                                      ! Rain Indicator
  0,                                      ! Snow Indicator
  21,                                     ! Day of Month
  1,                                      ! Month
  WinterDesignDay,                        ! Day Type
  0,                                      ! Daylight Saving Time Indicator
  Wetbulb,                                ! Humidity Indicating Type
  ,                                       ! Humidity Indicating Day Schedule Name
  DefaultMultipliers,                     ! Dry-Bulb Temperature Range Modifier Type
  ,                                       ! Dry-Bulb Temperature Range Modifier Schedule Name
  ASHRAEClearSky;                         ! Solar Model Indicator

OS:ComponentData,
  {588314a0-c86c-4bfc-b250-2d7935da7841}, ! Handle
  Component Data 1,                       ! Name
  {d69d5f20-55a7-4343-9db2-e22d17060a04}, ! UUID
  {d9a7c4b6-d12f-44f7-8c5e-1072ab95017e}, ! Version UUID
  1366307154,                             ! Creation Timestamp
  1366307154,                             ! Version Timestamp
  {3d03b69a-780a-429c-aa77-521e6c995986}; ! Name of Object 1

