
OS:Version,
  {f869236f-27e2-4fa6-b394-120c0d15dc42}, ! Handle
  0.9.3;                                  ! Version Identifier

OS:SizingPeriod:DesignDay,
  {1a16358d-e72c-4acd-9bc9-f73b80c5f235}, ! Handle
  Laconia Muni  Awos Ann Hum_n 99.6% Condns DP=>MCDB, ! Name
  -18,                                    ! Maximum Dry-Bulb Temperature {C}
  0,                                      ! Daily Dry-Bulb Temperature Range {deltaC}
  -29.1,                                  ! Humidity Indicating Conditions at Maximum Dry-Bulb {BasedOnField A3}
  99347,                                  ! Barometric Pressure {Pa}
  2.7,                                    ! Wind Speed {m/s}
  260,                                    ! Wind Direction {deg}
  0,                                      ! Sky Clearness
  0,                                      ! Rain Indicator
  0,                                      ! Snow Indicator
  21,                                     ! Day of Month
  1,                                      ! Month
  WinterDesignDay,                        ! Day Type
  0,                                      ! Daylight Saving Time Indicator
  Dewpoint,                               ! Humidity Indicating Type
  ,                                       ! Humidity Indicating Day Schedule Name
  DefaultMultipliers,                     ! Dry-Bulb Temperature Range Modifier Type
  ,                                       ! Dry-Bulb Temperature Range Modifier Schedule Name
  ASHRAEClearSky;                         ! Solar Model Indicator

OS:ComponentData,
  {f3258154-a49b-411e-b2c5-21c29ee29ddc}, ! Handle
  Component Data 1,                       ! Name
  {c75ebadb-50ae-4766-8bb6-3a5153214962}, ! UUID
  {92990f4e-426c-4f57-a1be-89676e05653e}, ! Version UUID
  1366309245,                             ! Creation Timestamp
  1366309245,                             ! Version Timestamp
  {1a16358d-e72c-4acd-9bc9-f73b80c5f235}; ! Name of Object 1

