
OS:Version,
  {65b1cf66-fe1f-4405-b6e5-20947c814750}, ! Handle
  0.9.3;                                  ! Version Identifier

OS:SizingPeriod:DesignDay,
  {041eb773-a391-4d5b-8c80-d276cfe7e031}, ! Handle
  Caribou Municipal Arpt Ann Clg 2% Condns DB=>MWB, ! Name
  25.6,                                   ! Maximum Dry-Bulb Temperature {C}
  10.9,                                   ! Daily Dry-Bulb Temperature Range {deltaC}
  18.4,                                   ! Humidity Indicating Conditions at Maximum Dry-Bulb {BasedOnField A3}
  99063,                                  ! Barometric Pressure {Pa}
  4.3,                                    ! Wind Speed {m/s}
  250,                                    ! Wind Direction {deg}
  0,                                      ! Sky Clearness
  0,                                      ! Rain Indicator
  0,                                      ! Snow Indicator
  21,                                     ! Day of Month
  7,                                      ! Month
  SummerDesignDay,                        ! Day Type
  0,                                      ! Daylight Saving Time Indicator
  Wetbulb,                                ! Humidity Indicating Type
  ,                                       ! Humidity Indicating Day Schedule Name
  DefaultMultipliers,                     ! Dry-Bulb Temperature Range Modifier Type
  ,                                       ! Dry-Bulb Temperature Range Modifier Schedule Name
  ASHRAETau,                              ! Solar Model Indicator
  ,                                       ! Beam Solar Day Schedule Name
  ,                                       ! Diffuse Solar Day Schedule Name
  0.429,                                  ! ASHRAE Taub {dimensionless}
  2.106;                                  ! ASHRAE Taud {dimensionless}

OS:ComponentData,
  {99de81f5-2993-4537-8c8c-b7c5eba3c81f}, ! Handle
  Component Data 1,                       ! Name
  {f76b83c3-3f00-44bb-9350-ef850ba91b26}, ! UUID
  {b8598773-a648-4dba-b138-eed51b1ba450}, ! Version UUID
  1366307894,                             ! Creation Timestamp
  1366307894,                             ! Version Timestamp
  {041eb773-a391-4d5b-8c80-d276cfe7e031}; ! Name of Object 1

