
OS:Version,
  {9f856b70-27bb-4a3f-ad2d-ab7c9a9267c9}, ! Handle
  0.9.3;                                  ! Version Identifier

OS:SizingPeriod:DesignDay,
  {2ded1312-b577-4862-83db-c80f00815e74}, ! Handle
  Cloquet  Awos Ann Clg 1% Condns DB=>MWB, ! Name
  27.5,                                   ! Maximum Dry-Bulb Temperature {C}
  11.5,                                   ! Daily Dry-Bulb Temperature Range {deltaC}
  20.7,                                   ! Humidity Indicating Conditions at Maximum Dry-Bulb {BasedOnField A3}
  96727,                                  ! Barometric Pressure {Pa}
  4.2,                                    ! Wind Speed {m/s}
  200,                                    ! Wind Direction {deg}
  0,                                      ! Sky Clearness
  0,                                      ! Rain Indicator
  0,                                      ! Snow Indicator
  21,                                     ! Day of Month
  7,                                      ! Month
  SummerDesignDay,                        ! Day Type
  0,                                      ! Daylight Saving Time Indicator
  Wetbulb,                                ! Humidity Indicating Type
  ,                                       ! Humidity Indicating Day Schedule Name
  DefaultMultipliers,                     ! Dry-Bulb Temperature Range Modifier Type
  ,                                       ! Dry-Bulb Temperature Range Modifier Schedule Name
  ASHRAETau,                              ! Solar Model Indicator
  ,                                       ! Beam Solar Day Schedule Name
  ,                                       ! Diffuse Solar Day Schedule Name
  0.399,                                  ! ASHRAE Taub {dimensionless}
  2.211;                                  ! ASHRAE Taud {dimensionless}

OS:ComponentData,
  {d73f43ec-12f6-4059-bc41-8d8de6c46c61}, ! Handle
  Component Data 1,                       ! Name
  {88016182-c8f0-46f5-b915-b28b28e5558f}, ! UUID
  {2d19beb8-ba00-4afc-9817-47242ab99382}, ! Version UUID
  1366308180,                             ! Creation Timestamp
  1366308180,                             ! Version Timestamp
  {2ded1312-b577-4862-83db-c80f00815e74}; ! Name of Object 1

