
OS:Version,
  {0d376900-a476-45ed-b546-1a1cad2345e7}, ! Handle
  0.9.3;                                  ! Version Identifier

OS:SizingPeriod:DesignDay,
  {bee8b878-a141-44d5-b3b2-ff5cb148c189}, ! Handle
  ASHEVILLE Ann Clg 1% Condns Enth=>MDB,  ! Name
  27.7,                                   ! Maximum Dry-Bulb Temperature {C}
  10.7,                                   ! Daily Dry-Bulb Temperature Range {deltaC}
  70500,                                  ! Humidity Indicating Conditions at Maximum Dry-Bulb {BasedOnField A3}
  93632,                                  ! Barometric Pressure {Pa}
  3.8,                                    ! Wind Speed {m/s}
  340,                                    ! Wind Direction {deg}
  0,                                      ! Sky Clearness
  0,                                      ! Rain Indicator
  0,                                      ! Snow Indicator
  21,                                     ! Day of Month
  7,                                      ! Month
  SummerDesignDay,                        ! Day Type
  0,                                      ! Daylight Saving Time Indicator
  Enthalpy,                               ! Humidity Indicating Type
  ,                                       ! Humidity Indicating Day Schedule Name
  DefaultMultipliers,                     ! Dry-Bulb Temperature Range Modifier Type
  ,                                       ! Dry-Bulb Temperature Range Modifier Schedule Name
  ASHRAETau,                              ! Solar Model Indicator
  ,                                       ! Beam Solar Day Schedule Name
  ,                                       ! Diffuse Solar Day Schedule Name
  0.517,                                  ! ASHRAE Taub {dimensionless}
  1.849;                                  ! ASHRAE Taud {dimensionless}

