
OS:Version,
  {b3045a4a-1272-4493-a673-caa5da4e6fa1}, ! Handle
  0.9.3;                                  ! Version Identifier

OS:SizingPeriod:DesignDay,
  {16efd829-88f2-43f1-b03d-188401490914}, ! Handle
  AUGUSTA Ann Htg 99% Condns DB,          ! Name
  -3.4,                                   ! Maximum Dry-Bulb Temperature {C}
  0,                                      ! Daily Dry-Bulb Temperature Range {deltaC}
  -3.4,                                   ! Humidity Indicating Conditions at Maximum Dry-Bulb {BasedOnField A3}
  100786,                                 ! Barometric Pressure {Pa}
  1.5,                                    ! Wind Speed {m/s}
  300,                                    ! Wind Direction {deg}
  0,                                      ! Sky Clearness
  0,                                      ! Rain Indicator
  0,                                      ! Snow Indicator
  21,                                     ! Day of Month
  1,                                      ! Month
  WinterDesignDay,                        ! Day Type
  0,                                      ! Daylight Saving Time Indicator
  Wetbulb,                                ! Humidity Indicating Type
  ,                                       ! Humidity Indicating Day Schedule Name
  DefaultMultipliers,                     ! Dry-Bulb Temperature Range Modifier Type
  ,                                       ! Dry-Bulb Temperature Range Modifier Schedule Name
  ASHRAEClearSky;                         ! Solar Model Indicator

OS:ComponentData,
  {714bff41-2b31-4ac7-808d-f2c639040f92}, ! Handle
  Component Data 1,                       ! Name
  {d3979c5f-7253-4f42-a961-365c12a49694}, ! UUID
  {9de2a4e3-4098-40a2-a59d-4a95a91ec8a2}, ! Version UUID
  1366306991,                             ! Creation Timestamp
  1366306991,                             ! Version Timestamp
  {16efd829-88f2-43f1-b03d-188401490914}; ! Name of Object 1

