
OS:Version,
  {ea5f173a-5ddd-450d-9e99-97ffd8361570}, ! Handle
  0.9.3;                                  ! Version Identifier

OS:SizingPeriod:DesignDay,
  {8bf48579-da09-478e-98f1-bb13285685ed}, ! Handle
  Brookings  Awos Ann Clg .4% Condns DP=>MDB, ! Name
  27.9,                                   ! Maximum Dry-Bulb Temperature {C}
  10.8,                                   ! Daily Dry-Bulb Temperature Range {deltaC}
  22.4,                                   ! Humidity Indicating Conditions at Maximum Dry-Bulb {BasedOnField A3}
  95438,                                  ! Barometric Pressure {Pa}
  5.9,                                    ! Wind Speed {m/s}
  190,                                    ! Wind Direction {deg}
  0,                                      ! Sky Clearness
  0,                                      ! Rain Indicator
  0,                                      ! Snow Indicator
  21,                                     ! Day of Month
  7,                                      ! Month
  SummerDesignDay,                        ! Day Type
  0,                                      ! Daylight Saving Time Indicator
  Dewpoint,                               ! Humidity Indicating Type
  ,                                       ! Humidity Indicating Day Schedule Name
  DefaultMultipliers,                     ! Dry-Bulb Temperature Range Modifier Type
  ,                                       ! Dry-Bulb Temperature Range Modifier Schedule Name
  ASHRAETau,                              ! Solar Model Indicator
  ,                                       ! Beam Solar Day Schedule Name
  ,                                       ! Diffuse Solar Day Schedule Name
  0.39,                                   ! ASHRAE Taub {dimensionless}
  2.285;                                  ! ASHRAE Taud {dimensionless}

OS:ComponentData,
  {86d12d08-0120-4a1d-bad8-bcabb1fec021}, ! Handle
  Component Data 1,                       ! Name
  {f6066c08-3976-49c4-a088-d7e22f31ea2b}, ! UUID
  {3a598ab4-d777-449b-bc6e-91cc9a6273be}, ! Version UUID
  1366310390,                             ! Creation Timestamp
  1366310390,                             ! Version Timestamp
  {8bf48579-da09-478e-98f1-bb13285685ed}; ! Name of Object 1

