
OS:Version,
  {b9cf4919-4a4f-4426-b52e-d3b9a5955373}, ! Handle
  0.9.3;                                  ! Version Identifier

OS:SizingPeriod:DesignDay,
  {78d37d05-2663-48a9-a692-1aed0f70ab4c}, ! Handle
  Alexandria Esler Regional Ap Ann Clg .4% Condns Enth=>MDB, ! Name
  31.7,                                   ! Maximum Dry-Bulb Temperature {C}
  11.3,                                   ! Daily Dry-Bulb Temperature Range {deltaC}
  84300,                                  ! Humidity Indicating Conditions at Maximum Dry-Bulb {BasedOnField A3}
  100917,                                 ! Barometric Pressure {Pa}
  3,                                      ! Wind Speed {m/s}
  60,                                     ! Wind Direction {deg}
  0,                                      ! Sky Clearness
  0,                                      ! Rain Indicator
  0,                                      ! Snow Indicator
  21,                                     ! Day of Month
  7,                                      ! Month
  SummerDesignDay,                        ! Day Type
  0,                                      ! Daylight Saving Time Indicator
  Enthalpy,                               ! Humidity Indicating Type
  ,                                       ! Humidity Indicating Day Schedule Name
  DefaultMultipliers,                     ! Dry-Bulb Temperature Range Modifier Type
  ,                                       ! Dry-Bulb Temperature Range Modifier Schedule Name
  ASHRAETau,                              ! Solar Model Indicator
  ,                                       ! Beam Solar Day Schedule Name
  ,                                       ! Diffuse Solar Day Schedule Name
  0.519,                                  ! ASHRAE Taub {dimensionless}
  1.913;                                  ! ASHRAE Taud {dimensionless}

OS:ComponentData,
  {f165cdca-ed9d-4864-9e99-c6f8bbf3d27d}, ! Handle
  Component Data 1,                       ! Name
  {47cf5609-c5d8-43f8-a60c-2e76a08afbc6}, ! UUID
  {820d5f6d-c416-4818-848b-19c3f55728f0}, ! Version UUID
  1366307696,                             ! Creation Timestamp
  1366307696,                             ! Version Timestamp
  {78d37d05-2663-48a9-a692-1aed0f70ab4c}; ! Name of Object 1

