
OS:Version,
  {971645dd-d98d-468e-b1f8-6377f50cdf6a}, ! Handle
  0.9.3;                                  ! Version Identifier

OS:SizingPeriod:DesignDay,
  {2786a1ac-b117-4c37-b323-6a1f5e22fd60}, ! Handle
  Dallas Redbird Arpt Ann Clg 1% Condns DB=>MWB, ! Name
  37.2,                                   ! Maximum Dry-Bulb Temperature {C}
  11.2,                                   ! Daily Dry-Bulb Temperature Range {deltaC}
  23.8,                                   ! Humidity Indicating Conditions at Maximum Dry-Bulb {BasedOnField A3}
  98934,                                  ! Barometric Pressure {Pa}
  4.2,                                    ! Wind Speed {m/s}
  150,                                    ! Wind Direction {deg}
  0,                                      ! Sky Clearness
  0,                                      ! Rain Indicator
  0,                                      ! Snow Indicator
  21,                                     ! Day of Month
  8,                                      ! Month
  SummerDesignDay,                        ! Day Type
  0,                                      ! Daylight Saving Time Indicator
  Wetbulb,                                ! Humidity Indicating Type
  ,                                       ! Humidity Indicating Day Schedule Name
  DefaultMultipliers,                     ! Dry-Bulb Temperature Range Modifier Type
  ,                                       ! Dry-Bulb Temperature Range Modifier Schedule Name
  ASHRAETau,                              ! Solar Model Indicator
  ,                                       ! Beam Solar Day Schedule Name
  ,                                       ! Diffuse Solar Day Schedule Name
  0.474,                                  ! ASHRAE Taub {dimensionless}
  2.026;                                  ! ASHRAE Taud {dimensionless}

OS:ComponentData,
  {e8177239-fc5d-4941-b936-36b144b69683}, ! Handle
  Component Data 1,                       ! Name
  {449d7bfb-5859-4e06-835b-6955c8f8bef7}, ! UUID
  {d7b5206f-0fc7-429f-9bb0-a5be1b945be0}, ! Version UUID
  1366310663,                             ! Creation Timestamp
  1366310663,                             ! Version Timestamp
  {2786a1ac-b117-4c37-b323-6a1f5e22fd60}; ! Name of Object 1

