
OS:Version,
  {b6df2a41-0804-4a77-9b22-66f3a01cdf8f}, ! Handle
  0.9.3;                                  ! Version Identifier

OS:SizingPeriod:DesignDay,
  {a2ce1f27-a716-4fcb-90a4-b5384d2607e3}, ! Handle
  Lovelock Ann Clg .4% Condns WB=>MDB,    ! Name
  33.5,                                   ! Maximum Dry-Bulb Temperature {C}
  20.2,                                   ! Daily Dry-Bulb Temperature Range {deltaC}
  19.7,                                   ! Humidity Indicating Conditions at Maximum Dry-Bulb {BasedOnField A3}
  87844,                                  ! Barometric Pressure {Pa}
  4.1,                                    ! Wind Speed {m/s}
  180,                                    ! Wind Direction {deg}
  0,                                      ! Sky Clearness
  0,                                      ! Rain Indicator
  0,                                      ! Snow Indicator
  21,                                     ! Day of Month
  7,                                      ! Month
  SummerDesignDay,                        ! Day Type
  0,                                      ! Daylight Saving Time Indicator
  Wetbulb,                                ! Humidity Indicating Type
  ,                                       ! Humidity Indicating Day Schedule Name
  DefaultMultipliers,                     ! Dry-Bulb Temperature Range Modifier Type
  ,                                       ! Dry-Bulb Temperature Range Modifier Schedule Name
  ASHRAETau,                              ! Solar Model Indicator
  ,                                       ! Beam Solar Day Schedule Name
  ,                                       ! Diffuse Solar Day Schedule Name
  0.427,                                  ! ASHRAE Taub {dimensionless}
  1.948;                                  ! ASHRAE Taud {dimensionless}

OS:ComponentData,
  {33ec830c-2fe9-44a6-81a5-9dd34e06897d}, ! Handle
  Component Data 1,                       ! Name
  {affa79a1-c506-44f8-95d8-4e39e3fc9a90}, ! UUID
  {24f47a19-e0c5-4ad1-8afe-90ae0d75a405}, ! Version UUID
  1366309512,                             ! Creation Timestamp
  1366309512,                             ! Version Timestamp
  {a2ce1f27-a716-4fcb-90a4-b5384d2607e3}; ! Name of Object 1

