
OS:Version,
  {dcfbca31-efc8-42cf-9887-a58bc2e006ef}, ! Handle
  0.9.3;                                  ! Version Identifier

OS:SizingPeriod:DesignDay,
  {c79e9d34-20a8-480e-affa-b9fa83df4462}, ! Handle
  Duluth Ann Clg .4% Condns DB=>MWB,      ! Name
  29.2,                                   ! Maximum Dry-Bulb Temperature {C}
  10.9,                                   ! Daily Dry-Bulb Temperature Range {deltaC}
  21,                                     ! Humidity Indicating Conditions at Maximum Dry-Bulb {BasedOnField A3}
  96242,                                  ! Barometric Pressure {Pa}
  5.2,                                    ! Wind Speed {m/s}
  220,                                    ! Wind Direction {deg}
  0,                                      ! Sky Clearness
  0,                                      ! Rain Indicator
  0,                                      ! Snow Indicator
  21,                                     ! Day of Month
  7,                                      ! Month
  SummerDesignDay,                        ! Day Type
  0,                                      ! Daylight Saving Time Indicator
  Wetbulb,                                ! Humidity Indicating Type
  ,                                       ! Humidity Indicating Day Schedule Name
  DefaultMultipliers,                     ! Dry-Bulb Temperature Range Modifier Type
  ,                                       ! Dry-Bulb Temperature Range Modifier Schedule Name
  ASHRAETau,                              ! Solar Model Indicator
  ,                                       ! Beam Solar Day Schedule Name
  ,                                       ! Diffuse Solar Day Schedule Name
  0.398,                                  ! ASHRAE Taub {dimensionless}
  2.218;                                  ! ASHRAE Taud {dimensionless}

OS:ComponentData,
  {dcac4b87-3ee6-428d-b1ff-cd12098cc71c}, ! Handle
  Component Data 1,                       ! Name
  {fa204340-af3e-4f4e-868f-2b8bbb5a65f4}, ! UUID
  {4331817f-f7d6-4332-8027-7a756179d830}, ! Version UUID
  1366308202,                             ! Creation Timestamp
  1366308202,                             ! Version Timestamp
  {c79e9d34-20a8-480e-affa-b9fa83df4462}; ! Name of Object 1

