
OS:Version,
  {f15a9311-d000-4c0d-aac0-1261f604b9f5}, ! Handle
  0.9.3;                                  ! Version Identifier

OS:SizingPeriod:DesignDay,
  {dc09e728-0d78-4f00-b9a3-4e018c3c7923}, ! Handle
  Detroit Metropolitan Arpt Ann Clg .4% Condns Enth=>MDB, ! Name
  30.1,                                   ! Maximum Dry-Bulb Temperature {C}
  10.4,                                   ! Daily Dry-Bulb Temperature Range {deltaC}
  76800,                                  ! Humidity Indicating Conditions at Maximum Dry-Bulb {BasedOnField A3}
  99016,                                  ! Barometric Pressure {Pa}
  5.9,                                    ! Wind Speed {m/s}
  240,                                    ! Wind Direction {deg}
  0,                                      ! Sky Clearness
  0,                                      ! Rain Indicator
  0,                                      ! Snow Indicator
  21,                                     ! Day of Month
  7,                                      ! Month
  SummerDesignDay,                        ! Day Type
  0,                                      ! Daylight Saving Time Indicator
  Enthalpy,                               ! Humidity Indicating Type
  ,                                       ! Humidity Indicating Day Schedule Name
  DefaultMultipliers,                     ! Dry-Bulb Temperature Range Modifier Type
  ,                                       ! Dry-Bulb Temperature Range Modifier Schedule Name
  ASHRAETau,                              ! Solar Model Indicator
  ,                                       ! Beam Solar Day Schedule Name
  ,                                       ! Diffuse Solar Day Schedule Name
  0.47,                                   ! ASHRAE Taub {dimensionless}
  1.978;                                  ! ASHRAE Taud {dimensionless}

OS:ComponentData,
  {ef36e18c-1bff-43bd-a6a8-54efcd25d98e}, ! Handle
  Component Data 1,                       ! Name
  {e2f680da-4948-4c19-9915-a401257878c0}, ! UUID
  {a42bff3d-bf5c-44b1-97e5-023feb603e78}, ! Version UUID
  1366307989,                             ! Creation Timestamp
  1366307989,                             ! Version Timestamp
  {dc09e728-0d78-4f00-b9a3-4e018c3c7923}; ! Name of Object 1

