
OS:Version,
  {260a44ae-1d18-4a03-b2e5-0e8534f64aee}, ! Handle
  0.9.3;                                  ! Version Identifier

OS:SizingPeriod:DesignDay,
  {4550176e-5dd2-4ae9-8012-55e363a70220}, ! Handle
  Abilene Regional Ap  Ut Ann Htg Wind 99% Condns WS=>MCDB, ! Name
  12.1,                                   ! Maximum Dry-Bulb Temperature {C}
  0,                                      ! Daily Dry-Bulb Temperature Range {deltaC}
  12.1,                                   ! Humidity Indicating Conditions at Maximum Dry-Bulb {BasedOnField A3}
  95118,                                  ! Barometric Pressure {Pa}
  12,                                     ! Wind Speed {m/s}
  10,                                     ! Wind Direction {deg}
  0,                                      ! Sky Clearness
  0,                                      ! Rain Indicator
  0,                                      ! Snow Indicator
  21,                                     ! Day of Month
  1,                                      ! Month
  WinterDesignDay,                        ! Day Type
  0,                                      ! Daylight Saving Time Indicator
  Wetbulb,                                ! Humidity Indicating Type
  ,                                       ! Humidity Indicating Day Schedule Name
  DefaultMultipliers,                     ! Dry-Bulb Temperature Range Modifier Type
  ,                                       ! Dry-Bulb Temperature Range Modifier Schedule Name
  ASHRAEClearSky;                         ! Solar Model Indicator

OS:ComponentData,
  {2689fc79-be16-43c6-ac92-b42e69b4d892}, ! Handle
  Component Data 1,                       ! Name
  {3e0b84bd-c20f-4409-8715-ab9a12cab36e}, ! UUID
  {604cc47e-f83d-4db7-9428-360a202f0cd0}, ! Version UUID
  1366310558,                             ! Creation Timestamp
  1366310558,                             ! Version Timestamp
  {4550176e-5dd2-4ae9-8012-55e363a70220}; ! Name of Object 1

