
OS:Version,
  {d0008bf0-7f6f-4084-aa77-59dbdf70b44d}, ! Handle
  0.9.3;                                  ! Version Identifier

OS:SizingPeriod:DesignDay,
  {138c9133-5ef6-4f0e-a3db-45ae54ce96ba}, ! Handle
  Louisville Standiford Field Ann Hum_n 99.6% Condns DP=>MCDB, ! Name
  -11.8,                                  ! Maximum Dry-Bulb Temperature {C}
  0,                                      ! Daily Dry-Bulb Temperature Range {deltaC}
  -19.3,                                  ! Humidity Indicating Conditions at Maximum Dry-Bulb {BasedOnField A3}
  99571,                                  ! Barometric Pressure {Pa}
  3.9,                                    ! Wind Speed {m/s}
  270,                                    ! Wind Direction {deg}
  0,                                      ! Sky Clearness
  0,                                      ! Rain Indicator
  0,                                      ! Snow Indicator
  21,                                     ! Day of Month
  1,                                      ! Month
  WinterDesignDay,                        ! Day Type
  0,                                      ! Daylight Saving Time Indicator
  Dewpoint,                               ! Humidity Indicating Type
  ,                                       ! Humidity Indicating Day Schedule Name
  DefaultMultipliers,                     ! Dry-Bulb Temperature Range Modifier Type
  ,                                       ! Dry-Bulb Temperature Range Modifier Schedule Name
  ASHRAEClearSky;                         ! Solar Model Indicator

OS:ComponentData,
  {d51c29e4-eda3-48ba-bd91-8e10ba5ce405}, ! Handle
  Component Data 1,                       ! Name
  {53f6f4ce-52d0-4ee6-b182-97bf0ebea769}, ! UUID
  {6cf69fb0-1ce5-4f7f-b6da-b7a8455f7fc0}, ! Version UUID
  1366307670,                             ! Creation Timestamp
  1366307670,                             ! Version Timestamp
  {138c9133-5ef6-4f0e-a3db-45ae54ce96ba}; ! Name of Object 1

