
OS:Version,
  {bd35abb3-e6aa-41ac-b4cf-cd0757bdd78b}, ! Handle
  0.9.3;                                  ! Version Identifier

OS:SizingPeriod:DesignDay,
  {5dc13700-175b-4fa2-bdbf-a31454792872}, ! Handle
  Binghamton Ann Clg 1% Condns DB=>MWB,   ! Name
  28.1,                                   ! Maximum Dry-Bulb Temperature {C}
  9.7,                                    ! Daily Dry-Bulb Temperature Range {deltaC}
  20.2,                                   ! Humidity Indicating Conditions at Maximum Dry-Bulb {BasedOnField A3}
  95495,                                  ! Barometric Pressure {Pa}
  4.6,                                    ! Wind Speed {m/s}
  240,                                    ! Wind Direction {deg}
  0,                                      ! Sky Clearness
  0,                                      ! Rain Indicator
  0,                                      ! Snow Indicator
  21,                                     ! Day of Month
  7,                                      ! Month
  SummerDesignDay,                        ! Day Type
  0,                                      ! Daylight Saving Time Indicator
  Wetbulb,                                ! Humidity Indicating Type
  ,                                       ! Humidity Indicating Day Schedule Name
  DefaultMultipliers,                     ! Dry-Bulb Temperature Range Modifier Type
  ,                                       ! Dry-Bulb Temperature Range Modifier Schedule Name
  ASHRAETau,                              ! Solar Model Indicator
  ,                                       ! Beam Solar Day Schedule Name
  ,                                       ! Diffuse Solar Day Schedule Name
  0.452,                                  ! ASHRAE Taub {dimensionless}
  2.004;                                  ! ASHRAE Taud {dimensionless}

OS:ComponentData,
  {4a1c561d-cc20-4bf4-9f8a-b3914cfd6330}, ! Handle
  Component Data 1,                       ! Name
  {1689b1bb-e26e-42a5-a548-3077e509aeb0}, ! UUID
  {e9e02eaf-5c21-4cc7-b7d2-df853d972873}, ! Version UUID
  1366309589,                             ! Creation Timestamp
  1366309589,                             ! Version Timestamp
  {5dc13700-175b-4fa2-bdbf-a31454792872}; ! Name of Object 1

