
OS:Version,
  {a5638d1b-5da8-4e4a-b79e-e27a1308dd2c}, ! Handle
  0.9.3;                                  ! Version Identifier

OS:SizingPeriod:DesignDay,
  {404a1561-937c-4b02-b54e-bd6be2fa5d0a}, ! Handle
  Fullerton Municipal Ann Clg 2% Condns Enth=>MDB, ! Name
  28.3,                                   ! Maximum Dry-Bulb Temperature {C}
  10.5,                                   ! Daily Dry-Bulb Temperature Range {deltaC}
  61400,                                  ! Humidity Indicating Conditions at Maximum Dry-Bulb {BasedOnField A3}
  100977,                                 ! Barometric Pressure {Pa}
  3.2,                                    ! Wind Speed {m/s}
  200,                                    ! Wind Direction {deg}
  0,                                      ! Sky Clearness
  0,                                      ! Rain Indicator
  0,                                      ! Snow Indicator
  21,                                     ! Day of Month
  8,                                      ! Month
  SummerDesignDay,                        ! Day Type
  0,                                      ! Daylight Saving Time Indicator
  Enthalpy,                               ! Humidity Indicating Type
  ,                                       ! Humidity Indicating Day Schedule Name
  DefaultMultipliers,                     ! Dry-Bulb Temperature Range Modifier Type
  ,                                       ! Dry-Bulb Temperature Range Modifier Schedule Name
  ASHRAETau,                              ! Solar Model Indicator
  ,                                       ! Beam Solar Day Schedule Name
  ,                                       ! Diffuse Solar Day Schedule Name
  0.453,                                  ! ASHRAE Taub {dimensionless}
  2.056;                                  ! ASHRAE Taud {dimensionless}

OS:ComponentData,
  {24090f91-a8e5-42ba-abb0-ca648f67c9af}, ! Handle
  Component Data 1,                       ! Name
  {167ca560-d560-4573-aa58-86e7442e2fb3}, ! UUID
  {65376db3-a005-4351-9095-80df2128e43c}, ! Version UUID
  1366306443,                             ! Creation Timestamp
  1366306443,                             ! Version Timestamp
  {404a1561-937c-4b02-b54e-bd6be2fa5d0a}; ! Name of Object 1

