
OS:Version,
  {9ab72258-d72d-4392-90f4-095c582225d2}, ! Handle
  0.9.3;                                  ! Version Identifier

OS:SizingPeriod:DesignDay,
  {b058ede5-a77a-40fa-b338-3e1063b2c461}, ! Handle
  London Corbin Ap Ann Clg 1% Condns DP=>MDB, ! Name
  26.6,                                   ! Maximum Dry-Bulb Temperature {C}
  10.4,                                   ! Daily Dry-Bulb Temperature Range {deltaC}
  22.7,                                   ! Humidity Indicating Conditions at Maximum Dry-Bulb {BasedOnField A3}
  97051,                                  ! Barometric Pressure {Pa}
  3.2,                                    ! Wind Speed {m/s}
  250,                                    ! Wind Direction {deg}
  0,                                      ! Sky Clearness
  0,                                      ! Rain Indicator
  0,                                      ! Snow Indicator
  21,                                     ! Day of Month
  7,                                      ! Month
  SummerDesignDay,                        ! Day Type
  0,                                      ! Daylight Saving Time Indicator
  Dewpoint,                               ! Humidity Indicating Type
  ,                                       ! Humidity Indicating Day Schedule Name
  DefaultMultipliers,                     ! Dry-Bulb Temperature Range Modifier Type
  ,                                       ! Dry-Bulb Temperature Range Modifier Schedule Name
  ASHRAETau,                              ! Solar Model Indicator
  ,                                       ! Beam Solar Day Schedule Name
  ,                                       ! Diffuse Solar Day Schedule Name
  0.51,                                   ! ASHRAE Taub {dimensionless}
  1.864;                                  ! ASHRAE Taud {dimensionless}

OS:ComponentData,
  {bbfa9ac8-7120-4ae4-9dc8-333f09daf21b}, ! Handle
  Component Data 1,                       ! Name
  {fe7d31a1-b0ac-4cf6-836f-4384fe00726c}, ! UUID
  {9f47e7ff-49aa-471d-968b-544466648781}, ! Version UUID
  1366307661,                             ! Creation Timestamp
  1366307661,                             ! Version Timestamp
  {b058ede5-a77a-40fa-b338-3e1063b2c461}; ! Name of Object 1

