
OS:Version,
  {30aaa901-d2f1-466a-aeb1-7f95dcde8442}, ! Handle
  0.9.3;                                  ! Version Identifier

OS:SizingPeriod:DesignDay,
  {83103c4e-9a32-46d0-9413-20933488708d}, ! Handle
  CONCORD Ann Htg 99.6% Condns DB,        ! Name
  -20.4,                                  ! Maximum Dry-Bulb Temperature {C}
  0,                                      ! Daily Dry-Bulb Temperature Range {deltaC}
  -20.4,                                  ! Humidity Indicating Conditions at Maximum Dry-Bulb {BasedOnField A3}
  100070,                                 ! Barometric Pressure {Pa}
  2.3,                                    ! Wind Speed {m/s}
  320,                                    ! Wind Direction {deg}
  0,                                      ! Sky Clearness
  0,                                      ! Rain Indicator
  0,                                      ! Snow Indicator
  21,                                     ! Day of Month
  1,                                      ! Month
  WinterDesignDay,                        ! Day Type
  0,                                      ! Daylight Saving Time Indicator
  Wetbulb,                                ! Humidity Indicating Type
  ,                                       ! Humidity Indicating Day Schedule Name
  DefaultMultipliers,                     ! Dry-Bulb Temperature Range Modifier Type
  ,                                       ! Dry-Bulb Temperature Range Modifier Schedule Name
  ASHRAEClearSky;                         ! Solar Model Indicator

OS:ComponentData,
  {848292b0-a3b5-4001-ba32-ac6d6bf6906e}, ! Handle
  Component Data 1,                       ! Name
  {c5423ca1-c63d-4c34-95f7-17ad34f027a1}, ! UUID
  {e7cf1caa-1638-4644-8951-36fcf4ff3ddb}, ! Version UUID
  1366309217,                             ! Creation Timestamp
  1366309217,                             ! Version Timestamp
  {83103c4e-9a32-46d0-9413-20933488708d}; ! Name of Object 1

