
OS:Version,
  {a0400824-2645-4e60-b235-e7ba5725f5a8}, ! Handle
  0.9.3;                                  ! Version Identifier

OS:SizingPeriod:DesignDay,
  {61dd53bf-784b-4849-9b76-de36868a40ba}, ! Handle
  Hobart Municipal Ap Ann Clg .4% Condns WB=>MDB, ! Name
  32.8,                                   ! Maximum Dry-Bulb Temperature {C}
  13,                                     ! Daily Dry-Bulb Temperature Range {deltaC}
  24.9,                                   ! Humidity Indicating Conditions at Maximum Dry-Bulb {BasedOnField A3}
  95713,                                  ! Barometric Pressure {Pa}
  6.3,                                    ! Wind Speed {m/s}
  170,                                    ! Wind Direction {deg}
  0,                                      ! Sky Clearness
  0,                                      ! Rain Indicator
  0,                                      ! Snow Indicator
  21,                                     ! Day of Month
  7,                                      ! Month
  SummerDesignDay,                        ! Day Type
  0,                                      ! Daylight Saving Time Indicator
  Wetbulb,                                ! Humidity Indicating Type
  ,                                       ! Humidity Indicating Day Schedule Name
  DefaultMultipliers,                     ! Dry-Bulb Temperature Range Modifier Type
  ,                                       ! Dry-Bulb Temperature Range Modifier Schedule Name
  ASHRAETau,                              ! Solar Model Indicator
  ,                                       ! Beam Solar Day Schedule Name
  ,                                       ! Diffuse Solar Day Schedule Name
  0.417,                                  ! ASHRAE Taub {dimensionless}
  2.22;                                   ! ASHRAE Taud {dimensionless}

OS:ComponentData,
  {8986b0b3-f593-4ea2-984f-2a2408216756}, ! Handle
  Component Data 1,                       ! Name
  {5c88a9dc-51f8-4a04-91d3-53781a6a9d9f}, ! UUID
  {1f0d67bd-e18c-4c0c-8ad9-bdbbd3104fa2}, ! Version UUID
  1366309898,                             ! Creation Timestamp
  1366309898,                             ! Version Timestamp
  {61dd53bf-784b-4849-9b76-de36868a40ba}; ! Name of Object 1

