
OS:Version,
  {71bc19ff-b50a-40ef-932b-dada24373f10}, ! Handle
  0.9.3;                                  ! Version Identifier

OS:SizingPeriod:DesignDay,
  {98f02bd8-b2e2-4700-a67b-0b1054398f65}, ! Handle
  Eagle County Ap Ann Hum_n 99% Condns DP=>MCDB, ! Name
  -18.2,                                  ! Maximum Dry-Bulb Temperature {C}
  0,                                      ! Daily Dry-Bulb Temperature Range {deltaC}
  -22.2,                                  ! Humidity Indicating Conditions at Maximum Dry-Bulb {BasedOnField A3}
  79693,                                  ! Barometric Pressure {Pa}
  0.7,                                    ! Wind Speed {m/s}
  120,                                    ! Wind Direction {deg}
  0,                                      ! Sky Clearness
  0,                                      ! Rain Indicator
  0,                                      ! Snow Indicator
  21,                                     ! Day of Month
  1,                                      ! Month
  WinterDesignDay,                        ! Day Type
  0,                                      ! Daylight Saving Time Indicator
  Dewpoint,                               ! Humidity Indicating Type
  ,                                       ! Humidity Indicating Day Schedule Name
  DefaultMultipliers,                     ! Dry-Bulb Temperature Range Modifier Type
  ,                                       ! Dry-Bulb Temperature Range Modifier Schedule Name
  ASHRAEClearSky;                         ! Solar Model Indicator

OS:ComponentData,
  {f5295b7b-807b-425e-b616-2c241f20c652}, ! Handle
  Component Data 1,                       ! Name
  {7348f9bc-747d-4b05-a898-c6ce1fed14e8}, ! UUID
  {5c9fa76c-65f8-460b-8285-a7ab98620692}, ! Version UUID
  1366306688,                             ! Creation Timestamp
  1366306688,                             ! Version Timestamp
  {98f02bd8-b2e2-4700-a67b-0b1054398f65}; ! Name of Object 1

