
OS:Version,
  {fc8d49de-b2c8-4d0f-b85d-20896264f9e3}, ! Handle
  0.9.3;                                  ! Version Identifier

OS:SizingPeriod:DesignDay,
  {012d1a76-2ac5-46aa-98ca-19e475ff1613}, ! Handle
  HURON Ann Clg 1% Condns DP=>MDB,        ! Name
  27.9,                                   ! Maximum Dry-Bulb Temperature {C}
  12.7,                                   ! Daily Dry-Bulb Temperature Range {deltaC}
  22.2,                                   ! Humidity Indicating Conditions at Maximum Dry-Bulb {BasedOnField A3}
  96692,                                  ! Barometric Pressure {Pa}
  6,                                      ! Wind Speed {m/s}
  180,                                    ! Wind Direction {deg}
  0,                                      ! Sky Clearness
  0,                                      ! Rain Indicator
  0,                                      ! Snow Indicator
  21,                                     ! Day of Month
  7,                                      ! Month
  SummerDesignDay,                        ! Day Type
  0,                                      ! Daylight Saving Time Indicator
  Dewpoint,                               ! Humidity Indicating Type
  ,                                       ! Humidity Indicating Day Schedule Name
  DefaultMultipliers,                     ! Dry-Bulb Temperature Range Modifier Type
  ,                                       ! Dry-Bulb Temperature Range Modifier Schedule Name
  ASHRAETau,                              ! Solar Model Indicator
  ,                                       ! Beam Solar Day Schedule Name
  ,                                       ! Diffuse Solar Day Schedule Name
  0.398,                                  ! ASHRAE Taub {dimensionless}
  2.269;                                  ! ASHRAE Taud {dimensionless}

OS:ComponentData,
  {67db4d02-b03e-436b-b8db-5d190c639fd9}, ! Handle
  Component Data 1,                       ! Name
  {77057d2d-5d19-4c60-b154-b4ebab8d0407}, ! UUID
  {28ea224d-666e-4527-a48b-6023331a554d}, ! Version UUID
  1366310400,                             ! Creation Timestamp
  1366310400,                             ! Version Timestamp
  {012d1a76-2ac5-46aa-98ca-19e475ff1613}; ! Name of Object 1

