
OS:Version,
  {231b046b-b6f3-4831-b476-4b4dd6539f63}, ! Handle
  0.9.3;                                  ! Version Identifier

OS:SizingPeriod:DesignDay,
  {8f9b43ec-e61c-46c3-acb7-c2e3bdc58645}, ! Handle
  Ely Yelland Field Ann Htg 99% Condns DB, ! Name
  -17.3,                                  ! Maximum Dry-Bulb Temperature {C}
  0,                                      ! Daily Dry-Bulb Temperature Range {deltaC}
  -17.3,                                  ! Humidity Indicating Conditions at Maximum Dry-Bulb {BasedOnField A3}
  80397,                                  ! Barometric Pressure {Pa}
  5,                                      ! Wind Speed {m/s}
  180,                                    ! Wind Direction {deg}
  0,                                      ! Sky Clearness
  0,                                      ! Rain Indicator
  0,                                      ! Snow Indicator
  21,                                     ! Day of Month
  12,                                     ! Month
  WinterDesignDay,                        ! Day Type
  0,                                      ! Daylight Saving Time Indicator
  Wetbulb,                                ! Humidity Indicating Type
  ,                                       ! Humidity Indicating Day Schedule Name
  DefaultMultipliers,                     ! Dry-Bulb Temperature Range Modifier Type
  ,                                       ! Dry-Bulb Temperature Range Modifier Schedule Name
  ASHRAEClearSky;                         ! Solar Model Indicator

OS:ComponentData,
  {974d224c-9884-4d15-abec-869b3840f789}, ! Handle
  Component Data 1,                       ! Name
  {86e23dac-7e2b-4a04-9c1b-d54a181622b6}, ! UUID
  {954d7eba-ddc8-4d1f-846f-bcfd36d654bd}, ! Version UUID
  1366309476,                             ! Creation Timestamp
  1366309476,                             ! Version Timestamp
  {8f9b43ec-e61c-46c3-acb7-c2e3bdc58645}; ! Name of Object 1

