
OS:Version,
  {bedcaadc-9a1f-4543-b8ce-1f95fd6fe635}, ! Handle
  0.9.3;                                  ! Version Identifier

OS:SizingPeriod:DesignDay,
  {9a261e52-7c27-410d-a79a-2f376eadac48}, ! Handle
  FAIRBANKS Ann Htg Wind 99% Condns WS=>MCDB, ! Name
  -13.9,                                  ! Maximum Dry-Bulb Temperature {C}
  0,                                      ! Daily Dry-Bulb Temperature Range {deltaC}
  -13.9,                                  ! Humidity Indicating Conditions at Maximum Dry-Bulb {BasedOnField A3}
  99678,                                  ! Barometric Pressure {Pa}
  7.5,                                    ! Wind Speed {m/s}
  20,                                     ! Wind Direction {deg}
  0,                                      ! Sky Clearness
  0,                                      ! Rain Indicator
  0,                                      ! Snow Indicator
  21,                                     ! Day of Month
  1,                                      ! Month
  WinterDesignDay,                        ! Day Type
  0,                                      ! Daylight Saving Time Indicator
  Wetbulb,                                ! Humidity Indicating Type
  ,                                       ! Humidity Indicating Day Schedule Name
  DefaultMultipliers,                     ! Dry-Bulb Temperature Range Modifier Type
  ,                                       ! Dry-Bulb Temperature Range Modifier Schedule Name
  ASHRAEClearSky;                         ! Solar Model Indicator

OS:ComponentData,
  {61d4909d-298f-402f-adc5-cfd100fb1b83}, ! Handle
  Component Data 1,                       ! Name
  {99c9b494-e542-48ad-8b40-6d8ef58275f1}, ! UUID
  {cc91b823-c900-4aa1-89ec-26347b5b33b5}, ! Version UUID
  1366305248,                             ! Creation Timestamp
  1366305248,                             ! Version Timestamp
  {9a261e52-7c27-410d-a79a-2f376eadac48}; ! Name of Object 1

