
OS:Version,
  {e97054ab-bfc3-436a-8376-410e2652565c}, ! Handle
  0.9.3;                                  ! Version Identifier

OS:SizingPeriod:DesignDay,
  {59801b2d-ff10-4bfd-87ae-67e4f9a82502}, ! Handle
  Beaufort Mcas Ann Hum_n 99% Condns DP=>MCDB, ! Name
  3.5,                                    ! Maximum Dry-Bulb Temperature {C}
  0,                                      ! Daily Dry-Bulb Temperature Range {deltaC}
  -9.6,                                   ! Humidity Indicating Conditions at Maximum Dry-Bulb {BasedOnField A3}
  101205,                                 ! Barometric Pressure {Pa}
  2,                                      ! Wind Speed {m/s}
  350,                                    ! Wind Direction {deg}
  0,                                      ! Sky Clearness
  0,                                      ! Rain Indicator
  0,                                      ! Snow Indicator
  21,                                     ! Day of Month
  1,                                      ! Month
  WinterDesignDay,                        ! Day Type
  0,                                      ! Daylight Saving Time Indicator
  Dewpoint,                               ! Humidity Indicating Type
  ,                                       ! Humidity Indicating Day Schedule Name
  DefaultMultipliers,                     ! Dry-Bulb Temperature Range Modifier Type
  ,                                       ! Dry-Bulb Temperature Range Modifier Schedule Name
  ASHRAEClearSky;                         ! Solar Model Indicator

OS:ComponentData,
  {3fbd795f-e2af-4b26-9cd6-eeba2b738b6b}, ! Handle
  Component Data 1,                       ! Name
  {962eb56a-cb0d-4a00-ae86-f782c22227b2}, ! UUID
  {e83a343d-c7df-4b81-87f3-8eb04279df9f}, ! Version UUID
  1366310317,                             ! Creation Timestamp
  1366310317,                             ! Version Timestamp
  {59801b2d-ff10-4bfd-87ae-67e4f9a82502}; ! Name of Object 1

