
OS:Version,
  {dad191a4-3f3a-40b8-aa9c-4c367ac22e6b}, ! Handle
  0.9.3;                                  ! Version Identifier

OS:SizingPeriod:DesignDay,
  {47ed4792-b138-4a32-af59-2f8f1ee5b032}, ! Handle
  Cedar Rapids Municipal Ap Ann Clg 2% Condns WB=>MDB, ! Name
  28.4,                                   ! Maximum Dry-Bulb Temperature {C}
  10.9,                                   ! Daily Dry-Bulb Temperature Range {deltaC}
  24,                                     ! Humidity Indicating Conditions at Maximum Dry-Bulb {BasedOnField A3}
  98287,                                  ! Barometric Pressure {Pa}
  4.8,                                    ! Wind Speed {m/s}
  180,                                    ! Wind Direction {deg}
  0,                                      ! Sky Clearness
  0,                                      ! Rain Indicator
  0,                                      ! Snow Indicator
  21,                                     ! Day of Month
  7,                                      ! Month
  SummerDesignDay,                        ! Day Type
  0,                                      ! Daylight Saving Time Indicator
  Wetbulb,                                ! Humidity Indicating Type
  ,                                       ! Humidity Indicating Day Schedule Name
  DefaultMultipliers,                     ! Dry-Bulb Temperature Range Modifier Type
  ,                                       ! Dry-Bulb Temperature Range Modifier Schedule Name
  ASHRAETau,                              ! Solar Model Indicator
  ,                                       ! Beam Solar Day Schedule Name
  ,                                       ! Diffuse Solar Day Schedule Name
  0.439,                                  ! ASHRAE Taub {dimensionless}
  2.102;                                  ! ASHRAE Taud {dimensionless}

OS:ComponentData,
  {243f4e87-255a-43f0-b7ef-4391456fd171}, ! Handle
  Component Data 1,                       ! Name
  {fdecc561-96af-422d-9cb1-3f12a583695b}, ! UUID
  {b7cae296-7ffc-465b-8a5a-0cd8e6a80f3c}, ! Version UUID
  1366307149,                             ! Creation Timestamp
  1366307149,                             ! Version Timestamp
  {47ed4792-b138-4a32-af59-2f8f1ee5b032}; ! Name of Object 1

