
OS:Version,
  {a0b2cf11-01f9-48a9-93cb-93834bd44975}, ! Handle
  0.9.3;                                  ! Version Identifier

OS:SizingPeriod:DesignDay,
  {9c8520fc-463b-48f0-a1b5-f6561334f64c}, ! Handle
  Dayton/Wright-Paterson Ann Clg 2% Condns DB=>MWB, ! Name
  30.2,                                   ! Maximum Dry-Bulb Temperature {C}
  11,                                     ! Daily Dry-Bulb Temperature Range {deltaC}
  22.3,                                   ! Humidity Indicating Conditions at Maximum Dry-Bulb {BasedOnField A3}
  98346,                                  ! Barometric Pressure {Pa}
  3.9,                                    ! Wind Speed {m/s}
  240,                                    ! Wind Direction {deg}
  0,                                      ! Sky Clearness
  0,                                      ! Rain Indicator
  0,                                      ! Snow Indicator
  21,                                     ! Day of Month
  7,                                      ! Month
  SummerDesignDay,                        ! Day Type
  0,                                      ! Daylight Saving Time Indicator
  Wetbulb,                                ! Humidity Indicating Type
  ,                                       ! Humidity Indicating Day Schedule Name
  DefaultMultipliers,                     ! Dry-Bulb Temperature Range Modifier Type
  ,                                       ! Dry-Bulb Temperature Range Modifier Schedule Name
  ASHRAETau,                              ! Solar Model Indicator
  ,                                       ! Beam Solar Day Schedule Name
  ,                                       ! Diffuse Solar Day Schedule Name
  0.484,                                  ! ASHRAE Taub {dimensionless}
  1.94;                                   ! ASHRAE Taud {dimensionless}

OS:ComponentData,
  {9a74da49-b2df-4a11-a615-adde37428b2e}, ! Handle
  Component Data 1,                       ! Name
  {c14687f5-0dbf-4b5a-b72a-12e3e8732e81}, ! UUID
  {728334bf-19a1-486e-8d0b-86d363cd051b}, ! Version UUID
  1366309808,                             ! Creation Timestamp
  1366309808,                             ! Version Timestamp
  {9c8520fc-463b-48f0-a1b5-f6561334f64c}; ! Name of Object 1

