
OS:Version,
  {a06ab074-268d-4fde-8f44-73d69d9f0a64}, ! Handle
  0.9.3;                                  ! Version Identifier

OS:SizingPeriod:DesignDay,
  {075d7799-ce59-4b4d-8e26-63a31aa6ab26}, ! Handle
  LIHUE Ann Htg Wind 99% Condns WS=>MCDB, ! Name
  22.1,                                   ! Maximum Dry-Bulb Temperature {C}
  0,                                      ! Daily Dry-Bulb Temperature Range {deltaC}
  22.1,                                   ! Humidity Indicating Conditions at Maximum Dry-Bulb {BasedOnField A3}
  100786,                                 ! Barometric Pressure {Pa}
  11.8,                                   ! Wind Speed {m/s}
  280,                                    ! Wind Direction {deg}
  0,                                      ! Sky Clearness
  0,                                      ! Rain Indicator
  0,                                      ! Snow Indicator
  21,                                     ! Day of Month
  2,                                      ! Month
  WinterDesignDay,                        ! Day Type
  0,                                      ! Daylight Saving Time Indicator
  Wetbulb,                                ! Humidity Indicating Type
  ,                                       ! Humidity Indicating Day Schedule Name
  DefaultMultipliers,                     ! Dry-Bulb Temperature Range Modifier Type
  ,                                       ! Dry-Bulb Temperature Range Modifier Schedule Name
  ASHRAEClearSky;                         ! Solar Model Indicator

OS:ComponentData,
  {09fb7c0f-3c63-4fd9-9354-e67cde95d624}, ! Handle
  Component Data 1,                       ! Name
  {4502cded-8530-48c5-8929-5b189dc5105d}, ! UUID
  {fc540f0b-7a01-4b31-9eb6-d5e6e8658fc8}, ! Version UUID
  1366307113,                             ! Creation Timestamp
  1366307113,                             ! Version Timestamp
  {075d7799-ce59-4b4d-8e26-63a31aa6ab26}; ! Name of Object 1

