
OS:Version,
  {75d7e178-b4c8-4b89-82bd-a06adb730aa0}, ! Handle
  0.9.3;                                  ! Version Identifier

OS:SizingPeriod:DesignDay,
  {4ebae615-a32b-4af6-b88f-6100b1654134}, ! Handle
  CHARLOTTE Ann Clg 2% Condns DB=>MWB,    ! Name
  31.9,                                   ! Maximum Dry-Bulb Temperature {C}
  10.1,                                   ! Daily Dry-Bulb Temperature Range {deltaC}
  23,                                     ! Humidity Indicating Conditions at Maximum Dry-Bulb {BasedOnField A3}
  98545,                                  ! Barometric Pressure {Pa}
  3.3,                                    ! Wind Speed {m/s}
  240,                                    ! Wind Direction {deg}
  0,                                      ! Sky Clearness
  0,                                      ! Rain Indicator
  0,                                      ! Snow Indicator
  21,                                     ! Day of Month
  7,                                      ! Month
  SummerDesignDay,                        ! Day Type
  0,                                      ! Daylight Saving Time Indicator
  Wetbulb,                                ! Humidity Indicating Type
  ,                                       ! Humidity Indicating Day Schedule Name
  DefaultMultipliers,                     ! Dry-Bulb Temperature Range Modifier Type
  ,                                       ! Dry-Bulb Temperature Range Modifier Schedule Name
  ASHRAETau,                              ! Solar Model Indicator
  ,                                       ! Beam Solar Day Schedule Name
  ,                                       ! Diffuse Solar Day Schedule Name
  0.557,                                  ! ASHRAE Taub {dimensionless}
  1.762;                                  ! ASHRAE Taud {dimensionless}

OS:ComponentData,
  {6d5de051-4674-45a3-8fe8-828bd0409db3}, ! Handle
  Component Data 1,                       ! Name
  {9bf8a167-3617-4a6a-832e-cc7c4113c617}, ! UUID
  {3528aca5-f185-4fa6-a069-ac2ec0d9ef58}, ! Version UUID
  1366308893,                             ! Creation Timestamp
  1366308893,                             ! Version Timestamp
  {4ebae615-a32b-4af6-b88f-6100b1654134}; ! Name of Object 1

