
OS:Version,
  {80ecc478-9562-4fe1-a739-1e3a83837c2b}, ! Handle
  0.9.3;                                  ! Version Identifier

OS:SizingPeriod:DesignDay,
  {c4209078-8dbf-4c01-a181-7df7f5c52726}, ! Handle
  Livermore Municipal Ann Htg Wind 99% Condns WS=>MCDB, ! Name
  10.9,                                   ! Maximum Dry-Bulb Temperature {C}
  0,                                      ! Daily Dry-Bulb Temperature Range {deltaC}
  10.9,                                   ! Humidity Indicating Conditions at Maximum Dry-Bulb {BasedOnField A3}
  99880,                                  ! Barometric Pressure {Pa}
  7.5,                                    ! Wind Speed {m/s}
  80,                                     ! Wind Direction {deg}
  0,                                      ! Sky Clearness
  0,                                      ! Rain Indicator
  0,                                      ! Snow Indicator
  21,                                     ! Day of Month
  1,                                      ! Month
  WinterDesignDay,                        ! Day Type
  0,                                      ! Daylight Saving Time Indicator
  Wetbulb,                                ! Humidity Indicating Type
  ,                                       ! Humidity Indicating Day Schedule Name
  DefaultMultipliers,                     ! Dry-Bulb Temperature Range Modifier Type
  ,                                       ! Dry-Bulb Temperature Range Modifier Schedule Name
  ASHRAEClearSky;                         ! Solar Model Indicator

OS:ComponentData,
  {82e4738a-c169-4354-bd10-769155b5ba57}, ! Handle
  Component Data 1,                       ! Name
  {17b5d8d6-b9dc-428f-9c24-77bce763e044}, ! UUID
  {5dafb905-be6e-489d-bd0a-9a2d91ff8248}, ! Version UUID
  1366306463,                             ! Creation Timestamp
  1366306463,                             ! Version Timestamp
  {c4209078-8dbf-4c01-a181-7df7f5c52726}; ! Name of Object 1

