
OS:Version,
  {d066f718-8f43-4b0d-bcf2-899169680433}, ! Handle
  0.9.3;                                  ! Version Identifier

OS:SizingPeriod:DesignDay,
  {abd074e7-5c3c-4d85-a56f-8daecf3e82e2}, ! Handle
  Fort Worth Alliance Ann Clg 2% Condns WB=>MDB, ! Name
  32.4,                                   ! Maximum Dry-Bulb Temperature {C}
  11.7,                                   ! Daily Dry-Bulb Temperature Range {deltaC}
  24.9,                                   ! Humidity Indicating Conditions at Maximum Dry-Bulb {BasedOnField A3}
  98639,                                  ! Barometric Pressure {Pa}
  4.5,                                    ! Wind Speed {m/s}
  170,                                    ! Wind Direction {deg}
  0,                                      ! Sky Clearness
  0,                                      ! Rain Indicator
  0,                                      ! Snow Indicator
  21,                                     ! Day of Month
  7,                                      ! Month
  SummerDesignDay,                        ! Day Type
  0,                                      ! Daylight Saving Time Indicator
  Wetbulb,                                ! Humidity Indicating Type
  ,                                       ! Humidity Indicating Day Schedule Name
  DefaultMultipliers,                     ! Dry-Bulb Temperature Range Modifier Type
  ,                                       ! Dry-Bulb Temperature Range Modifier Schedule Name
  ASHRAETau,                              ! Solar Model Indicator
  ,                                       ! Beam Solar Day Schedule Name
  ,                                       ! Diffuse Solar Day Schedule Name
  0.46,                                   ! ASHRAE Taub {dimensionless}
  2.088;                                  ! ASHRAE Taud {dimensionless}

OS:ComponentData,
  {772ad14d-3128-4eeb-b723-ab61516630d0}, ! Handle
  Component Data 1,                       ! Name
  {b7d12994-8fb6-487d-9851-fdd4111713ae}, ! UUID
  {41306fce-45f6-49f0-9d14-5c7c61fa1b71}, ! Version UUID
  1366310698,                             ! Creation Timestamp
  1366310698,                             ! Version Timestamp
  {abd074e7-5c3c-4d85-a56f-8daecf3e82e2}; ! Name of Object 1

