
OS:Version,
  {275aaa23-d227-45d6-88e0-5e4e4ae6bfce}, ! Handle
  0.9.3;                                  ! Version Identifier

OS:SizingPeriod:DesignDay,
  {b44485f9-f800-4b95-93c7-c831f5620632}, ! Handle
  Lake Charles Ann Htg Wind 99.6% Condns WS=>MCDB, ! Name
  12.7,                                   ! Maximum Dry-Bulb Temperature {C}
  0,                                      ! Daily Dry-Bulb Temperature Range {deltaC}
  12.7,                                   ! Humidity Indicating Conditions at Maximum Dry-Bulb {BasedOnField A3}
  101205,                                 ! Barometric Pressure {Pa}
  11,                                     ! Wind Speed {m/s}
  20,                                     ! Wind Direction {deg}
  0,                                      ! Sky Clearness
  0,                                      ! Rain Indicator
  0,                                      ! Snow Indicator
  21,                                     ! Day of Month
  1,                                      ! Month
  WinterDesignDay,                        ! Day Type
  0,                                      ! Daylight Saving Time Indicator
  Wetbulb,                                ! Humidity Indicating Type
  ,                                       ! Humidity Indicating Day Schedule Name
  DefaultMultipliers,                     ! Dry-Bulb Temperature Range Modifier Type
  ,                                       ! Dry-Bulb Temperature Range Modifier Schedule Name
  ASHRAEClearSky;                         ! Solar Model Indicator

OS:ComponentData,
  {15dc274a-9989-4fd0-98ae-22dc51080d1a}, ! Handle
  Component Data 1,                       ! Name
  {f9624ca5-98de-49e5-ae1a-975a95e6e105}, ! UUID
  {50973bba-e92e-4a0c-b4f4-661337ec55fa}, ! Version UUID
  1366307727,                             ! Creation Timestamp
  1366307727,                             ! Version Timestamp
  {b44485f9-f800-4b95-93c7-c831f5620632}; ! Name of Object 1

