
OS:Version,
  {63f5b524-cdfc-41fc-9587-096e72d4f10e}, ! Handle
  0.9.3;                                  ! Version Identifier

OS:SizingPeriod:DesignDay,
  {6cfad506-cdaf-4a74-aa81-5f4dfa7b561a}, ! Handle
  Bentonville  Awos Ann Clg 1% Condns WB=>MDB, ! Name
  31,                                     ! Maximum Dry-Bulb Temperature {C}
  10.9,                                   ! Daily Dry-Bulb Temperature Range {deltaC}
  24.7,                                   ! Humidity Indicating Conditions at Maximum Dry-Bulb {BasedOnField A3}
  96669,                                  ! Barometric Pressure {Pa}
  3.1,                                    ! Wind Speed {m/s}
  220,                                    ! Wind Direction {deg}
  0,                                      ! Sky Clearness
  0,                                      ! Rain Indicator
  0,                                      ! Snow Indicator
  21,                                     ! Day of Month
  7,                                      ! Month
  SummerDesignDay,                        ! Day Type
  0,                                      ! Daylight Saving Time Indicator
  Wetbulb,                                ! Humidity Indicating Type
  ,                                       ! Humidity Indicating Day Schedule Name
  DefaultMultipliers,                     ! Dry-Bulb Temperature Range Modifier Type
  ,                                       ! Dry-Bulb Temperature Range Modifier Schedule Name
  ASHRAETau,                              ! Solar Model Indicator
  ,                                       ! Beam Solar Day Schedule Name
  ,                                       ! Diffuse Solar Day Schedule Name
  0.453,                                  ! ASHRAE Taub {dimensionless}
  2.084;                                  ! ASHRAE Taud {dimensionless}

OS:ComponentData,
  {10c3b55f-9fb2-4c6c-8fe9-2b3814fce828}, ! Handle
  Component Data 1,                       ! Name
  {8d113e3b-c992-4ca4-b8da-a66b630d0f80}, ! UUID
  {2f56d574-60ee-4d31-b63a-bfdd8cd29a09}, ! Version UUID
  1366306195,                             ! Creation Timestamp
  1366306195,                             ! Version Timestamp
  {6cfad506-cdaf-4a74-aa81-5f4dfa7b561a}; ! Name of Object 1

