
OS:Version,
  {6689d4f7-2a01-4f60-894b-a0ec823ec06d}, ! Handle
  0.9.3;                                  ! Version Identifier

OS:SizingPeriod:DesignDay,
  {2359c669-0261-4a3b-8d5b-bade86fff57d}, ! Handle
  Corvallis Muni Ann Clg 2% Condns Enth=>MDB, ! Name
  28.9,                                   ! Maximum Dry-Bulb Temperature {C}
  15.5,                                   ! Daily Dry-Bulb Temperature Range {deltaC}
  52200,                                  ! Humidity Indicating Conditions at Maximum Dry-Bulb {BasedOnField A3}
  100403,                                 ! Barometric Pressure {Pa}
  4.5,                                    ! Wind Speed {m/s}
  30,                                     ! Wind Direction {deg}
  0,                                      ! Sky Clearness
  0,                                      ! Rain Indicator
  0,                                      ! Snow Indicator
  21,                                     ! Day of Month
  7,                                      ! Month
  SummerDesignDay,                        ! Day Type
  0,                                      ! Daylight Saving Time Indicator
  Enthalpy,                               ! Humidity Indicating Type
  ,                                       ! Humidity Indicating Day Schedule Name
  DefaultMultipliers,                     ! Dry-Bulb Temperature Range Modifier Type
  ,                                       ! Dry-Bulb Temperature Range Modifier Schedule Name
  ASHRAETau,                              ! Solar Model Indicator
  ,                                       ! Beam Solar Day Schedule Name
  ,                                       ! Diffuse Solar Day Schedule Name
  0.357,                                  ! ASHRAE Taub {dimensionless}
  2.553;                                  ! ASHRAE Taud {dimensionless}

OS:ComponentData,
  {fbbfaa1e-8fa0-455d-9a7e-77ea1372adec}, ! Handle
  Component Data 1,                       ! Name
  {8233d1e2-16fb-486d-aff8-85b0cd8f7aa9}, ! UUID
  {182f3633-1d15-4ca2-8b25-04c7413db1fc}, ! Version UUID
  1366310004,                             ! Creation Timestamp
  1366310004,                             ! Version Timestamp
  {2359c669-0261-4a3b-8d5b-bade86fff57d}; ! Name of Object 1

