
OS:Version,
  {088b6405-e073-4bbf-83f8-48c366292b79}, ! Handle
  0.9.3;                                  ! Version Identifier

OS:SizingPeriod:DesignDay,
  {2dc1df8d-2338-4a23-af65-8557d5cf1cc4}, ! Handle
  Belleville Scott Afb Ann Clg 1% Condns DB=>MWB, ! Name
  33.7,                                   ! Maximum Dry-Bulb Temperature {C}
  11,                                     ! Daily Dry-Bulb Temperature Range {deltaC}
  24.8,                                   ! Humidity Indicating Conditions at Maximum Dry-Bulb {BasedOnField A3}
  99714,                                  ! Barometric Pressure {Pa}
  3.4,                                    ! Wind Speed {m/s}
  190,                                    ! Wind Direction {deg}
  0,                                      ! Sky Clearness
  0,                                      ! Rain Indicator
  0,                                      ! Snow Indicator
  21,                                     ! Day of Month
  7,                                      ! Month
  SummerDesignDay,                        ! Day Type
  0,                                      ! Daylight Saving Time Indicator
  Wetbulb,                                ! Humidity Indicating Type
  ,                                       ! Humidity Indicating Day Schedule Name
  DefaultMultipliers,                     ! Dry-Bulb Temperature Range Modifier Type
  ,                                       ! Dry-Bulb Temperature Range Modifier Schedule Name
  ASHRAETau,                              ! Solar Model Indicator
  ,                                       ! Beam Solar Day Schedule Name
  ,                                       ! Diffuse Solar Day Schedule Name
  0.48,                                   ! ASHRAE Taub {dimensionless}
  1.976;                                  ! ASHRAE Taud {dimensionless}

OS:ComponentData,
  {b270e709-aaf1-462b-b3eb-00affdbeac9d}, ! Handle
  Component Data 1,                       ! Name
  {431dd403-5e82-4a2d-94c0-5ac5ee8e55f0}, ! UUID
  {4ffe599b-f2e3-4f13-9c12-82fbc8977c17}, ! Version UUID
  1366307323,                             ! Creation Timestamp
  1366307323,                             ! Version Timestamp
  {2dc1df8d-2338-4a23-af65-8557d5cf1cc4}; ! Name of Object 1

