
OS:Version,
  {160a7f7f-f73d-4b80-8131-70aed7291dad}, ! Handle
  0.9.3;                                  ! Version Identifier

OS:SizingPeriod:DesignDay,
  {be1f8877-addd-4279-8e97-c824fc2bd552}, ! Handle
  CHARLOTTE Ann Htg 99.6% Condns DB,      ! Name
  -6.4,                                   ! Maximum Dry-Bulb Temperature {C}
  0,                                      ! Daily Dry-Bulb Temperature Range {deltaC}
  -6.4,                                   ! Humidity Indicating Conditions at Maximum Dry-Bulb {BasedOnField A3}
  98545,                                  ! Barometric Pressure {Pa}
  2.7,                                    ! Wind Speed {m/s}
  20,                                     ! Wind Direction {deg}
  0,                                      ! Sky Clearness
  0,                                      ! Rain Indicator
  0,                                      ! Snow Indicator
  21,                                     ! Day of Month
  1,                                      ! Month
  WinterDesignDay,                        ! Day Type
  0,                                      ! Daylight Saving Time Indicator
  Wetbulb,                                ! Humidity Indicating Type
  ,                                       ! Humidity Indicating Day Schedule Name
  DefaultMultipliers,                     ! Dry-Bulb Temperature Range Modifier Type
  ,                                       ! Dry-Bulb Temperature Range Modifier Schedule Name
  ASHRAEClearSky;                         ! Solar Model Indicator

OS:ComponentData,
  {ec6c47a8-c702-4abc-b5b4-51a499572851}, ! Handle
  Component Data 1,                       ! Name
  {eeeb8601-2229-4755-a6d4-8ffecc0f79ce}, ! UUID
  {84a41365-94fc-4a8e-aee6-6c551268ff72}, ! Version UUID
  1366308892,                             ! Creation Timestamp
  1366308892,                             ! Version Timestamp
  {be1f8877-addd-4279-8e97-c824fc2bd552}; ! Name of Object 1

