
OS:Version,
  {f3e7d57c-bb23-41e5-8bd3-409688c47441}, ! Handle
  0.9.3;                                  ! Version Identifier

OS:SizingPeriod:DesignDay,
  {5f6bcb9d-dc09-45e5-9d59-829ab3397a09}, ! Handle
  Fort Worth Meacham Ann Clg 2% Condns WB=>MDB, ! Name
  32.3,                                   ! Maximum Dry-Bulb Temperature {C}
  11.1,                                   ! Daily Dry-Bulb Temperature Range {deltaC}
  24.9,                                   ! Humidity Indicating Conditions at Maximum Dry-Bulb {BasedOnField A3}
  98839,                                  ! Barometric Pressure {Pa}
  4.6,                                    ! Wind Speed {m/s}
  160,                                    ! Wind Direction {deg}
  0,                                      ! Sky Clearness
  0,                                      ! Rain Indicator
  0,                                      ! Snow Indicator
  21,                                     ! Day of Month
  8,                                      ! Month
  SummerDesignDay,                        ! Day Type
  0,                                      ! Daylight Saving Time Indicator
  Wetbulb,                                ! Humidity Indicating Type
  ,                                       ! Humidity Indicating Day Schedule Name
  DefaultMultipliers,                     ! Dry-Bulb Temperature Range Modifier Type
  ,                                       ! Dry-Bulb Temperature Range Modifier Schedule Name
  ASHRAETau,                              ! Solar Model Indicator
  ,                                       ! Beam Solar Day Schedule Name
  ,                                       ! Diffuse Solar Day Schedule Name
  0.466,                                  ! ASHRAE Taub {dimensionless}
  2.06;                                   ! ASHRAE Taud {dimensionless}

OS:ComponentData,
  {b1a13f17-c537-4f3a-9a41-c1b12ca20202}, ! Handle
  Component Data 1,                       ! Name
  {c6d4d5a7-cb60-4fb5-8ee5-f452a7d71b44}, ! UUID
  {846ccfe7-4850-403e-ac30-2fb1fe3b4636}, ! Version UUID
  1366310702,                             ! Creation Timestamp
  1366310702,                             ! Version Timestamp
  {5f6bcb9d-dc09-45e5-9d59-829ab3397a09}; ! Name of Object 1

