
OS:Version,
  {1bcc42cb-fd8f-4358-88c8-4643844b315c}, ! Handle
  0.9.3;                                  ! Version Identifier

OS:SizingPeriod:DesignDay,
  {7ffd98dc-6ca8-4651-9caa-4391cdf0664f}, ! Handle
  Holloman Afb Ann Clg 1% Condns DP=>MDB, ! Name
  22.1,                                   ! Maximum Dry-Bulb Temperature {C}
  14.5,                                   ! Daily Dry-Bulb Temperature Range {deltaC}
  17.3,                                   ! Humidity Indicating Conditions at Maximum Dry-Bulb {BasedOnField A3}
  87204,                                  ! Barometric Pressure {Pa}
  4.2,                                    ! Wind Speed {m/s}
  250,                                    ! Wind Direction {deg}
  0,                                      ! Sky Clearness
  0,                                      ! Rain Indicator
  0,                                      ! Snow Indicator
  21,                                     ! Day of Month
  7,                                      ! Month
  SummerDesignDay,                        ! Day Type
  0,                                      ! Daylight Saving Time Indicator
  Dewpoint,                               ! Humidity Indicating Type
  ,                                       ! Humidity Indicating Day Schedule Name
  DefaultMultipliers,                     ! Dry-Bulb Temperature Range Modifier Type
  ,                                       ! Dry-Bulb Temperature Range Modifier Schedule Name
  ASHRAETau,                              ! Solar Model Indicator
  ,                                       ! Beam Solar Day Schedule Name
  ,                                       ! Diffuse Solar Day Schedule Name
  0.514,                                  ! ASHRAE Taub {dimensionless}
  1.765;                                  ! ASHRAE Taud {dimensionless}

OS:ComponentData,
  {8c81fd12-2692-4d89-9a11-d850b3005971}, ! Handle
  Component Data 1,                       ! Name
  {dfdf6340-4d67-4978-a935-5fa2922007a2}, ! UUID
  {be2477f7-5c4b-44a6-869a-b7edd0e2c955}, ! Version UUID
  1366309414,                             ! Creation Timestamp
  1366309414,                             ! Version Timestamp
  {7ffd98dc-6ca8-4651-9caa-4391cdf0664f}; ! Name of Object 1

