
OS:Version,
  {a0bf253a-0d74-4c13-8182-8233dd931052}, ! Handle
  0.9.3;                                  ! Version Identifier

OS:SizingPeriod:DesignDay,
  {c9b7994a-2c1d-442d-b497-101f21d056f8}, ! Handle
  Davis Monthan Afb Ann Clg 2% Condns WB=>MDB, ! Name
  30.2,                                   ! Maximum Dry-Bulb Temperature {C}
  13.3,                                   ! Daily Dry-Bulb Temperature Range {deltaC}
  21.7,                                   ! Humidity Indicating Conditions at Maximum Dry-Bulb {BasedOnField A3}
  91976,                                  ! Barometric Pressure {Pa}
  4.8,                                    ! Wind Speed {m/s}
  310,                                    ! Wind Direction {deg}
  0,                                      ! Sky Clearness
  0,                                      ! Rain Indicator
  0,                                      ! Snow Indicator
  21,                                     ! Day of Month
  7,                                      ! Month
  SummerDesignDay,                        ! Day Type
  0,                                      ! Daylight Saving Time Indicator
  Wetbulb,                                ! Humidity Indicating Type
  ,                                       ! Humidity Indicating Day Schedule Name
  DefaultMultipliers,                     ! Dry-Bulb Temperature Range Modifier Type
  ,                                       ! Dry-Bulb Temperature Range Modifier Schedule Name
  ASHRAETau,                              ! Solar Model Indicator
  ,                                       ! Beam Solar Day Schedule Name
  ,                                       ! Diffuse Solar Day Schedule Name
  0.555,                                  ! ASHRAE Taub {dimensionless}
  1.729;                                  ! ASHRAE Taud {dimensionless}

OS:ComponentData,
  {5e4cf218-a159-4e49-a5a3-0eb9e14dcacc}, ! Handle
  Component Data 1,                       ! Name
  {065857ba-3b2f-4d21-a143-e5cfc73b804d}, ! UUID
  {04477a96-f987-4948-b0e8-5d157464803c}, ! Version UUID
  1366306264,                             ! Creation Timestamp
  1366306264,                             ! Version Timestamp
  {c9b7994a-2c1d-442d-b497-101f21d056f8}; ! Name of Object 1

