
OS:Version,
  {f8b148da-f0fe-4634-9dfb-e4c82dd0d44b}, ! Handle
  0.9.3;                                  ! Version Identifier

OS:SizingPeriod:DesignDay,
  {462417a9-dbd6-4bda-9dee-d2f089ec587b}, ! Handle
  Bemidji Municipal Ann Clg 1% Condns DP=>MDB, ! Name
  25.3,                                   ! Maximum Dry-Bulb Temperature {C}
  10.7,                                   ! Daily Dry-Bulb Temperature Range {deltaC}
  19.1,                                   ! Humidity Indicating Conditions at Maximum Dry-Bulb {BasedOnField A3}
  96380,                                  ! Barometric Pressure {Pa}
  5.3,                                    ! Wind Speed {m/s}
  180,                                    ! Wind Direction {deg}
  0,                                      ! Sky Clearness
  0,                                      ! Rain Indicator
  0,                                      ! Snow Indicator
  21,                                     ! Day of Month
  7,                                      ! Month
  SummerDesignDay,                        ! Day Type
  0,                                      ! Daylight Saving Time Indicator
  Dewpoint,                               ! Humidity Indicating Type
  ,                                       ! Humidity Indicating Day Schedule Name
  DefaultMultipliers,                     ! Dry-Bulb Temperature Range Modifier Type
  ,                                       ! Dry-Bulb Temperature Range Modifier Schedule Name
  ASHRAETau,                              ! Solar Model Indicator
  ,                                       ! Beam Solar Day Schedule Name
  ,                                       ! Diffuse Solar Day Schedule Name
  0.389,                                  ! ASHRAE Taub {dimensionless}
  2.27;                                   ! ASHRAE Taud {dimensionless}

OS:ComponentData,
  {737daa4b-0dcf-4ebb-b783-d95383660522}, ! Handle
  Component Data 1,                       ! Name
  {aef06b10-46a4-4f16-8ec5-791bcb54c5b4}, ! UUID
  {ef8eb343-083c-4702-9883-d03a7d59971f}, ! Version UUID
  1366308159,                             ! Creation Timestamp
  1366308159,                             ! Version Timestamp
  {462417a9-dbd6-4bda-9dee-d2f089ec587b}; ! Name of Object 1

