
OS:Version,
  {23d00f4f-f78d-49f0-8499-88d798e60ad7}, ! Handle
  0.9.3;                                  ! Version Identifier

OS:SizingPeriod:DesignDay,
  {c8ee67f5-684a-42d6-af53-9dfc4ff64c4b}, ! Handle
  International Falls Ann Clg 1% Condns Enth=>MDB, ! Name
  26,                                     ! Maximum Dry-Bulb Temperature {C}
  12.4,                                   ! Daily Dry-Bulb Temperature Range {deltaC}
  64100,                                  ! Humidity Indicating Conditions at Maximum Dry-Bulb {BasedOnField A3}
  97063,                                  ! Barometric Pressure {Pa}
  4.7,                                    ! Wind Speed {m/s}
  200,                                    ! Wind Direction {deg}
  0,                                      ! Sky Clearness
  0,                                      ! Rain Indicator
  0,                                      ! Snow Indicator
  21,                                     ! Day of Month
  7,                                      ! Month
  SummerDesignDay,                        ! Day Type
  0,                                      ! Daylight Saving Time Indicator
  Enthalpy,                               ! Humidity Indicating Type
  ,                                       ! Humidity Indicating Day Schedule Name
  DefaultMultipliers,                     ! Dry-Bulb Temperature Range Modifier Type
  ,                                       ! Dry-Bulb Temperature Range Modifier Schedule Name
  ASHRAETau,                              ! Solar Model Indicator
  ,                                       ! Beam Solar Day Schedule Name
  ,                                       ! Diffuse Solar Day Schedule Name
  0.405,                                  ! ASHRAE Taub {dimensionless}
  2.2;                                    ! ASHRAE Taud {dimensionless}

OS:ComponentData,
  {3e34bcf4-48cb-47a7-b578-f76a6ebf1ab8}, ! Handle
  Component Data 1,                       ! Name
  {2040a307-e170-4f32-9546-c70b2ec2fcb7}, ! UUID
  {a6e14595-e364-40db-b943-c802b9bf96dd}, ! Version UUID
  1366308273,                             ! Creation Timestamp
  1366308273,                             ! Version Timestamp
  {c8ee67f5-684a-42d6-af53-9dfc4ff64c4b}; ! Name of Object 1

