
OS:Version,
  {90700485-5ca4-4759-99cd-d9361062f630}, ! Handle
  0.9.3;                                  ! Version Identifier

OS:SizingPeriod:DesignDay,
  {7a85fd6c-9cc6-4c4d-81ae-df6ac2196574}, ! Handle
  Kalamazoo Battle Cr Ann Clg .4% Condns Enth=>MDB, ! Name
  29.5,                                   ! Maximum Dry-Bulb Temperature {C}
  11.1,                                   ! Daily Dry-Bulb Temperature Range {deltaC}
  75500,                                  ! Humidity Indicating Conditions at Maximum Dry-Bulb {BasedOnField A3}
  98088,                                  ! Barometric Pressure {Pa}
  4.8,                                    ! Wind Speed {m/s}
  210,                                    ! Wind Direction {deg}
  0,                                      ! Sky Clearness
  0,                                      ! Rain Indicator
  0,                                      ! Snow Indicator
  21,                                     ! Day of Month
  7,                                      ! Month
  SummerDesignDay,                        ! Day Type
  0,                                      ! Daylight Saving Time Indicator
  Enthalpy,                               ! Humidity Indicating Type
  ,                                       ! Humidity Indicating Day Schedule Name
  DefaultMultipliers,                     ! Dry-Bulb Temperature Range Modifier Type
  ,                                       ! Dry-Bulb Temperature Range Modifier Schedule Name
  ASHRAETau,                              ! Solar Model Indicator
  ,                                       ! Beam Solar Day Schedule Name
  ,                                       ! Diffuse Solar Day Schedule Name
  0.424,                                  ! ASHRAE Taub {dimensionless}
  2.175;                                  ! ASHRAE Taud {dimensionless}

OS:ComponentData,
  {fdce1e0d-631c-4cf0-8177-9a9d5a69df3c}, ! Handle
  Component Data 1,                       ! Name
  {f0b16328-d04a-454e-8e4e-4bd95673d768}, ! UUID
  {33e5dbc8-940b-4b9d-a43b-1902daed262a}, ! Version UUID
  1366308049,                             ! Creation Timestamp
  1366308049,                             ! Version Timestamp
  {7a85fd6c-9cc6-4c4d-81ae-df6ac2196574}; ! Name of Object 1

