
OS:Version,
  {5d49f0c1-c298-4858-abbb-0a3f826a2441}, ! Handle
  0.9.3;                                  ! Version Identifier

OS:SizingPeriod:DesignDay,
  {681c3073-ad56-4202-81ef-7c721947507b}, ! Handle
  Lake Charles Regional Arpt Ann Clg 2% Condns Enth=>MDB, ! Name
  30.5,                                   ! Maximum Dry-Bulb Temperature {C}
  8.6,                                    ! Daily Dry-Bulb Temperature Range {deltaC}
  82600,                                  ! Humidity Indicating Conditions at Maximum Dry-Bulb {BasedOnField A3}
  101265,                                 ! Barometric Pressure {Pa}
  3.3,                                    ! Wind Speed {m/s}
  230,                                    ! Wind Direction {deg}
  0,                                      ! Sky Clearness
  0,                                      ! Rain Indicator
  0,                                      ! Snow Indicator
  21,                                     ! Day of Month
  7,                                      ! Month
  SummerDesignDay,                        ! Day Type
  0,                                      ! Daylight Saving Time Indicator
  Enthalpy,                               ! Humidity Indicating Type
  ,                                       ! Humidity Indicating Day Schedule Name
  DefaultMultipliers,                     ! Dry-Bulb Temperature Range Modifier Type
  ,                                       ! Dry-Bulb Temperature Range Modifier Schedule Name
  ASHRAETau,                              ! Solar Model Indicator
  ,                                       ! Beam Solar Day Schedule Name
  ,                                       ! Diffuse Solar Day Schedule Name
  0.528,                                  ! ASHRAE Taub {dimensionless}
  1.904;                                  ! ASHRAE Taud {dimensionless}

OS:ComponentData,
  {06f1dea9-c400-405d-8c89-5c61dfa33ee1}, ! Handle
  Component Data 1,                       ! Name
  {797e3288-4d9e-404e-8c6e-61908be4e914}, ! UUID
  {b7d08fc3-146a-48a5-a37c-2c29fc0a30cd}, ! Version UUID
  1366307733,                             ! Creation Timestamp
  1366307733,                             ! Version Timestamp
  {681c3073-ad56-4202-81ef-7c721947507b}; ! Name of Object 1

