
OS:Version,
  {7c8e4561-dfca-416c-b902-5ba72145964a}, ! Handle
  0.9.3;                                  ! Version Identifier

OS:SizingPeriod:DesignDay,
  {34bf873c-15a9-4f20-9752-01381b668bcc}, ! Handle
  Aurora Buckley Field Angb Ann Hum_n 99% Condns DP=>MCDB, ! Name
  -8.8,                                   ! Maximum Dry-Bulb Temperature {C}
  0,                                      ! Daily Dry-Bulb Temperature Range {deltaC}
  -19,                                    ! Humidity Indicating Conditions at Maximum Dry-Bulb {BasedOnField A3}
  82237,                                  ! Barometric Pressure {Pa}
  2.5,                                    ! Wind Speed {m/s}
  180,                                    ! Wind Direction {deg}
  0,                                      ! Sky Clearness
  0,                                      ! Rain Indicator
  0,                                      ! Snow Indicator
  21,                                     ! Day of Month
  12,                                     ! Month
  WinterDesignDay,                        ! Day Type
  0,                                      ! Daylight Saving Time Indicator
  Dewpoint,                               ! Humidity Indicating Type
  ,                                       ! Humidity Indicating Day Schedule Name
  DefaultMultipliers,                     ! Dry-Bulb Temperature Range Modifier Type
  ,                                       ! Dry-Bulb Temperature Range Modifier Schedule Name
  ASHRAEClearSky;                         ! Solar Model Indicator

OS:ComponentData,
  {db0ceb61-bb55-4886-ada7-bb595ad38f78}, ! Handle
  Component Data 1,                       ! Name
  {6b037518-2638-47b1-ba03-15dd958fad78}, ! UUID
  {0dd26065-e2b1-477f-abbe-ab12186c5bf8}, ! Version UUID
  1366306653,                             ! Creation Timestamp
  1366306653,                             ! Version Timestamp
  {34bf873c-15a9-4f20-9752-01381b668bcc}; ! Name of Object 1

