
OS:Version,
  {e8d72be7-e2d7-4996-a4f6-70ba57ae79aa}, ! Handle
  0.9.3;                                  ! Version Identifier

OS:SizingPeriod:DesignDay,
  {fd89f558-6d1c-4878-89b6-2e5e42da00ae}, ! Handle
  Keokuk Muni Ann Clg .4% Condns Enth=>MDB, ! Name
  33.1,                                   ! Maximum Dry-Bulb Temperature {C}
  10,                                     ! Daily Dry-Bulb Temperature Range {deltaC}
  87900,                                  ! Humidity Indicating Conditions at Maximum Dry-Bulb {BasedOnField A3}
  98886,                                  ! Barometric Pressure {Pa}
  4,                                      ! Wind Speed {m/s}
  210,                                    ! Wind Direction {deg}
  0,                                      ! Sky Clearness
  0,                                      ! Rain Indicator
  0,                                      ! Snow Indicator
  21,                                     ! Day of Month
  7,                                      ! Month
  SummerDesignDay,                        ! Day Type
  0,                                      ! Daylight Saving Time Indicator
  Enthalpy,                               ! Humidity Indicating Type
  ,                                       ! Humidity Indicating Day Schedule Name
  DefaultMultipliers,                     ! Dry-Bulb Temperature Range Modifier Type
  ,                                       ! Dry-Bulb Temperature Range Modifier Schedule Name
  ASHRAETau,                              ! Solar Model Indicator
  ,                                       ! Beam Solar Day Schedule Name
  ,                                       ! Diffuse Solar Day Schedule Name
  0.455,                                  ! ASHRAE Taub {dimensionless}
  2.055;                                  ! ASHRAE Taud {dimensionless}

