
OS:Version,
  {5cf4777c-b983-4b70-9dee-1f95ce952bcc}, ! Handle
  0.9.3;                                  ! Version Identifier

OS:SizingPeriod:DesignDay,
  {38eb7021-567a-4ac1-9df6-59d4cde04b56}, ! Handle
  Cheyenne Municipal Arpt Ann Clg 2% Condns DB=>MWB, ! Name
  28.6,                                   ! Maximum Dry-Bulb Temperature {C}
  14.6,                                   ! Daily Dry-Bulb Temperature Range {deltaC}
  14.1,                                   ! Humidity Indicating Conditions at Maximum Dry-Bulb {BasedOnField A3}
  80817,                                  ! Barometric Pressure {Pa}
  5.3,                                    ! Wind Speed {m/s}
  170,                                    ! Wind Direction {deg}
  0,                                      ! Sky Clearness
  0,                                      ! Rain Indicator
  0,                                      ! Snow Indicator
  21,                                     ! Day of Month
  7,                                      ! Month
  SummerDesignDay,                        ! Day Type
  0,                                      ! Daylight Saving Time Indicator
  Wetbulb,                                ! Humidity Indicating Type
  ,                                       ! Humidity Indicating Day Schedule Name
  DefaultMultipliers,                     ! Dry-Bulb Temperature Range Modifier Type
  ,                                       ! Dry-Bulb Temperature Range Modifier Schedule Name
  ASHRAETau,                              ! Solar Model Indicator
  ,                                       ! Beam Solar Day Schedule Name
  ,                                       ! Diffuse Solar Day Schedule Name
  0.404,                                  ! ASHRAE Taub {dimensionless}
  2.038;                                  ! ASHRAE Taud {dimensionless}

OS:ComponentData,
  {42809dee-3f24-4c4d-8fd3-9cf0f0f5df64}, ! Handle
  Component Data 1,                       ! Name
  {02fd24f6-c2af-4ca0-9f4a-2e34f5951281}, ! UUID
  {d7e4dda6-8dad-4d36-9142-700feaaa8251}, ! Version UUID
  1366311711,                             ! Creation Timestamp
  1366311711,                             ! Version Timestamp
  {38eb7021-567a-4ac1-9df6-59d4cde04b56}; ! Name of Object 1

