
OS:Version,
  {5848a381-7890-4c76-9c9e-a2c355355897}, ! Handle
  0.9.3;                                  ! Version Identifier

OS:SizingPeriod:DesignDay,
  {d6c4b7be-dd57-487f-8986-c139d277bdbb}, ! Handle
  CARIBOU Ann Clg .4% Condns DB=>MWB,     ! Name
  29.1,                                   ! Maximum Dry-Bulb Temperature {C}
  10.9,                                   ! Daily Dry-Bulb Temperature Range {deltaC}
  20.5,                                   ! Humidity Indicating Conditions at Maximum Dry-Bulb {BasedOnField A3}
  99063,                                  ! Barometric Pressure {Pa}
  4.3,                                    ! Wind Speed {m/s}
  250,                                    ! Wind Direction {deg}
  0,                                      ! Sky Clearness
  0,                                      ! Rain Indicator
  0,                                      ! Snow Indicator
  21,                                     ! Day of Month
  7,                                      ! Month
  SummerDesignDay,                        ! Day Type
  0,                                      ! Daylight Saving Time Indicator
  Wetbulb,                                ! Humidity Indicating Type
  ,                                       ! Humidity Indicating Day Schedule Name
  DefaultMultipliers,                     ! Dry-Bulb Temperature Range Modifier Type
  ,                                       ! Dry-Bulb Temperature Range Modifier Schedule Name
  ASHRAETau,                              ! Solar Model Indicator
  ,                                       ! Beam Solar Day Schedule Name
  ,                                       ! Diffuse Solar Day Schedule Name
  0.429,                                  ! ASHRAE Taub {dimensionless}
  2.106;                                  ! ASHRAE Taud {dimensionless}

OS:ComponentData,
  {24cd724f-e495-4edc-9d7b-9439f86bb2f9}, ! Handle
  Component Data 1,                       ! Name
  {ca50325c-0a3d-4234-aad3-475d33452d02}, ! UUID
  {d4b4343d-7c83-46f8-9edf-f41195e08b39}, ! Version UUID
  1366307886,                             ! Creation Timestamp
  1366307886,                             ! Version Timestamp
  {d6c4b7be-dd57-487f-8986-c139d277bdbb}; ! Name of Object 1

