
OS:Version,
  {500d48aa-8fe3-4b47-ae01-f9a981e76382}, ! Handle
  0.9.3;                                  ! Version Identifier

OS:SizingPeriod:DesignDay,
  {f0cf34bb-845a-4819-b093-3fab3984e302}, ! Handle
  Fort Drum Wheeler S Ann Clg .4% Condns WB=>MDB, ! Name
  27.3,                                   ! Maximum Dry-Bulb Temperature {C}
  10.6,                                   ! Daily Dry-Bulb Temperature Range {deltaC}
  23.6,                                   ! Humidity Indicating Conditions at Maximum Dry-Bulb {BasedOnField A3}
  98816,                                  ! Barometric Pressure {Pa}
  4.5,                                    ! Wind Speed {m/s}
  250,                                    ! Wind Direction {deg}
  0,                                      ! Sky Clearness
  0,                                      ! Rain Indicator
  0,                                      ! Snow Indicator
  21,                                     ! Day of Month
  7,                                      ! Month
  SummerDesignDay,                        ! Day Type
  0,                                      ! Daylight Saving Time Indicator
  Wetbulb,                                ! Humidity Indicating Type
  ,                                       ! Humidity Indicating Day Schedule Name
  DefaultMultipliers,                     ! Dry-Bulb Temperature Range Modifier Type
  ,                                       ! Dry-Bulb Temperature Range Modifier Schedule Name
  ASHRAETau,                              ! Solar Model Indicator
  ,                                       ! Beam Solar Day Schedule Name
  ,                                       ! Diffuse Solar Day Schedule Name
  0.449,                                  ! ASHRAE Taub {dimensionless}
  2.034;                                  ! ASHRAE Taud {dimensionless}

OS:ComponentData,
  {f0acd84a-da4f-4bf6-bd1d-874d4bbdd0fe}, ! Handle
  Component Data 1,                       ! Name
  {fb5efe63-c702-4755-b9a9-9827460129c2}, ! UUID
  {b4d69cec-7a1e-404c-9c92-9a9c5da7aa63}, ! Version UUID
  1366309622,                             ! Creation Timestamp
  1366309622,                             ! Version Timestamp
  {f0cf34bb-845a-4819-b093-3fab3984e302}; ! Name of Object 1

