
OS:Version,
  {c76ba51e-6b17-46a5-bc50-1d1b925e8b5b}, ! Handle
  0.9.3;                                  ! Version Identifier

OS:SizingPeriod:DesignDay,
  {6bbb8c11-2f98-4db4-b319-550700bd66d0}, ! Handle
  Adak Nas Ann Htg Wind 99% Condns WS=>MCDB, ! Name
  1.3,                                    ! Maximum Dry-Bulb Temperature {C}
  0,                                      ! Daily Dry-Bulb Temperature Range {deltaC}
  1.3,                                    ! Humidity Indicating Conditions at Maximum Dry-Bulb {BasedOnField A3}
  101265,                                 ! Barometric Pressure {Pa}
  17.8,                                   ! Wind Speed {m/s}
  200,                                    ! Wind Direction {deg}
  0,                                      ! Sky Clearness
  0,                                      ! Rain Indicator
  0,                                      ! Snow Indicator
  21,                                     ! Day of Month
  1,                                      ! Month
  WinterDesignDay,                        ! Day Type
  0,                                      ! Daylight Saving Time Indicator
  Wetbulb,                                ! Humidity Indicating Type
  ,                                       ! Humidity Indicating Day Schedule Name
  DefaultMultipliers,                     ! Dry-Bulb Temperature Range Modifier Type
  ,                                       ! Dry-Bulb Temperature Range Modifier Schedule Name
  ASHRAEClearSky;                         ! Solar Model Indicator

OS:ComponentData,
  {b4649b9f-8107-4b19-a5b9-69534176649e}, ! Handle
  Component Data 1,                       ! Name
  {f91cefad-fd34-4fb1-8bfc-cc5b4d2fc2a1}, ! UUID
  {126e3e1d-7e25-4344-9eea-ab6015512ea9}, ! Version UUID
  1364004396,                             ! Creation Timestamp
  1364004396,                             ! Version Timestamp
  {6bbb8c11-2f98-4db4-b319-550700bd66d0}; ! Name of Object 1

