
OS:Version,
  {3f951eae-ba05-4384-8d61-ac1d8d410905}, ! Handle
  0.9.3;                                  ! Version Identifier

OS:SizingPeriod:DesignDay,
  {4dc76416-84c7-4696-bdfa-fd1f69770f17}, ! Handle
  Jamestown Municipal Arpt Ann Htg Wind 99.6% Condns WS=>MCDB, ! Name
  -9.6,                                   ! Maximum Dry-Bulb Temperature {C}
  0,                                      ! Daily Dry-Bulb Temperature Range {deltaC}
  -9.6,                                   ! Humidity Indicating Conditions at Maximum Dry-Bulb {BasedOnField A3}
  95977,                                  ! Barometric Pressure {Pa}
  14.5,                                   ! Wind Speed {m/s}
  290,                                    ! Wind Direction {deg}
  0,                                      ! Sky Clearness
  0,                                      ! Rain Indicator
  0,                                      ! Snow Indicator
  21,                                     ! Day of Month
  1,                                      ! Month
  WinterDesignDay,                        ! Day Type
  0,                                      ! Daylight Saving Time Indicator
  Wetbulb,                                ! Humidity Indicating Type
  ,                                       ! Humidity Indicating Day Schedule Name
  DefaultMultipliers,                     ! Dry-Bulb Temperature Range Modifier Type
  ,                                       ! Dry-Bulb Temperature Range Modifier Schedule Name
  ASHRAEClearSky;                         ! Solar Model Indicator

OS:ComponentData,
  {6b4c6774-1098-4b1e-bda0-43ef9eb2c8d8}, ! Handle
  Component Data 1,                       ! Name
  {32e6e6c9-7e66-4448-9b37-c10dc9341d7b}, ! UUID
  {40860ed8-bc26-4b8a-b9d6-696ee5ef0ba4}, ! Version UUID
  1366309050,                             ! Creation Timestamp
  1366309050,                             ! Version Timestamp
  {4dc76416-84c7-4696-bdfa-fd1f69770f17}; ! Name of Object 1

