
OS:Version,
  {8ce4cf9e-3aee-42a3-93d7-90f26a15a972}, ! Handle
  0.9.3;                                  ! Version Identifier

OS:SizingPeriod:DesignDay,
  {4d786675-c991-4f3e-867b-d9cdf674b0a0}, ! Handle
  Casa Granda  Awos Ann Clg 1% Condns DP=>MDB, ! Name
  26.2,                                   ! Maximum Dry-Bulb Temperature {C}
  14.5,                                   ! Daily Dry-Bulb Temperature Range {deltaC}
  19.9,                                   ! Humidity Indicating Conditions at Maximum Dry-Bulb {BasedOnField A3}
  96081,                                  ! Barometric Pressure {Pa}
  4.2,                                    ! Wind Speed {m/s}
  270,                                    ! Wind Direction {deg}
  0,                                      ! Sky Clearness
  0,                                      ! Rain Indicator
  0,                                      ! Snow Indicator
  21,                                     ! Day of Month
  7,                                      ! Month
  SummerDesignDay,                        ! Day Type
  0,                                      ! Daylight Saving Time Indicator
  Dewpoint,                               ! Humidity Indicating Type
  ,                                       ! Humidity Indicating Day Schedule Name
  DefaultMultipliers,                     ! Dry-Bulb Temperature Range Modifier Type
  ,                                       ! Dry-Bulb Temperature Range Modifier Schedule Name
  ASHRAETau,                              ! Solar Model Indicator
  ,                                       ! Beam Solar Day Schedule Name
  ,                                       ! Diffuse Solar Day Schedule Name
  0.575,                                  ! ASHRAE Taub {dimensionless}
  1.678;                                  ! ASHRAE Taud {dimensionless}

OS:ComponentData,
  {9076f53b-92bf-4a3d-9e20-fe34f1a105c6}, ! Handle
  Component Data 1,                       ! Name
  {66affc7f-2bdf-4bb0-8526-12178c2a0e15}, ! UUID
  {3ea62d10-c2b3-4ce9-b56c-a801bd199136}, ! Version UUID
  1366306262,                             ! Creation Timestamp
  1366306262,                             ! Version Timestamp
  {4d786675-c991-4f3e-867b-d9cdf674b0a0}; ! Name of Object 1

