
OS:Version,
  {d1012820-3997-4d93-8e02-8d01c534e928}, ! Handle
  0.9.3;                                  ! Version Identifier

OS:SizingPeriod:DesignDay,
  {f8f24074-e030-4a3b-98e6-eec1425e3559}, ! Handle
  GRAND_RAPIDS Ann Clg .4% Condns DP=>MDB, ! Name
  27.6,                                   ! Maximum Dry-Bulb Temperature {C}
  11.1,                                   ! Daily Dry-Bulb Temperature Range {deltaC}
  23.1,                                   ! Humidity Indicating Conditions at Maximum Dry-Bulb {BasedOnField A3}
  98416,                                  ! Barometric Pressure {Pa}
  5.8,                                    ! Wind Speed {m/s}
  240,                                    ! Wind Direction {deg}
  0,                                      ! Sky Clearness
  0,                                      ! Rain Indicator
  0,                                      ! Snow Indicator
  21,                                     ! Day of Month
  7,                                      ! Month
  SummerDesignDay,                        ! Day Type
  0,                                      ! Daylight Saving Time Indicator
  Dewpoint,                               ! Humidity Indicating Type
  ,                                       ! Humidity Indicating Day Schedule Name
  DefaultMultipliers,                     ! Dry-Bulb Temperature Range Modifier Type
  ,                                       ! Dry-Bulb Temperature Range Modifier Schedule Name
  ASHRAETau,                              ! Solar Model Indicator
  ,                                       ! Beam Solar Day Schedule Name
  ,                                       ! Diffuse Solar Day Schedule Name
  0.424,                                  ! ASHRAE Taub {dimensionless}
  2.173;                                  ! ASHRAE Taud {dimensionless}

OS:ComponentData,
  {972348be-1fc9-4f2f-a4d0-e09388ccef63}, ! Handle
  Component Data 1,                       ! Name
  {3a3daad8-1c9b-443c-ab6a-b1f863382120}, ! UUID
  {e6657883-3c90-4cc3-8d25-f62d761a85af}, ! Version UUID
  1366308018,                             ! Creation Timestamp
  1366308018,                             ! Version Timestamp
  {f8f24074-e030-4a3b-98e6-eec1425e3559}; ! Name of Object 1

