
OS:Version,
  {759015a1-c202-463e-a9b0-eb2ec6677576}, ! Handle
  0.9.3;                                  ! Version Identifier

OS:SizingPeriod:DesignDay,
  {6771283e-0454-4d60-8766-8bd462863312}, ! Handle
  Appleton Outagamie Ann Clg .4% Condns DB=>MWB, ! Name
  31.4,                                   ! Maximum Dry-Bulb Temperature {C}
  10,                                     ! Daily Dry-Bulb Temperature Range {deltaC}
  23.8,                                   ! Humidity Indicating Conditions at Maximum Dry-Bulb {BasedOnField A3}
  98006,                                  ! Barometric Pressure {Pa}
  5.3,                                    ! Wind Speed {m/s}
  210,                                    ! Wind Direction {deg}
  0,                                      ! Sky Clearness
  0,                                      ! Rain Indicator
  0,                                      ! Snow Indicator
  21,                                     ! Day of Month
  7,                                      ! Month
  SummerDesignDay,                        ! Day Type
  0,                                      ! Daylight Saving Time Indicator
  Wetbulb,                                ! Humidity Indicating Type
  ,                                       ! Humidity Indicating Day Schedule Name
  DefaultMultipliers,                     ! Dry-Bulb Temperature Range Modifier Type
  ,                                       ! Dry-Bulb Temperature Range Modifier Schedule Name
  ASHRAETau,                              ! Solar Model Indicator
  ,                                       ! Beam Solar Day Schedule Name
  ,                                       ! Diffuse Solar Day Schedule Name
  0.429,                                  ! ASHRAE Taub {dimensionless}
  2.121;                                  ! ASHRAE Taud {dimensionless}

OS:ComponentData,
  {a362680d-52f3-4b34-9afc-56fc3bcf608e}, ! Handle
  Component Data 1,                       ! Name
  {a21851d2-999b-450c-8f2f-c286a6514143}, ! UUID
  {1ca97d70-9297-41fe-ba0b-07e307398c84}, ! Version UUID
  1366311458,                             ! Creation Timestamp
  1366311458,                             ! Version Timestamp
  {6771283e-0454-4d60-8766-8bd462863312}; ! Name of Object 1

