
OS:Version,
  {975958a3-77c8-4c3b-9ca5-da4be8dc8086}, ! Handle
  0.9.3;                                  ! Version Identifier

OS:SizingPeriod:DesignDay,
  {ee5f5558-ba4b-4142-96f4-7083730a7404}, ! Handle
  Houston/Intercontinent Ann Htg Wind 99.6% Condns WS=>MCDB, ! Name
  13.9,                                   ! Maximum Dry-Bulb Temperature {C}
  0,                                      ! Daily Dry-Bulb Temperature Range {deltaC}
  13.9,                                   ! Humidity Indicating Conditions at Maximum Dry-Bulb {BasedOnField A3}
  100929,                                 ! Barometric Pressure {Pa}
  9.9,                                    ! Wind Speed {m/s}
  0,                                      ! Wind Direction {deg}
  0,                                      ! Sky Clearness
  0,                                      ! Rain Indicator
  0,                                      ! Snow Indicator
  21,                                     ! Day of Month
  1,                                      ! Month
  WinterDesignDay,                        ! Day Type
  0,                                      ! Daylight Saving Time Indicator
  Wetbulb,                                ! Humidity Indicating Type
  ,                                       ! Humidity Indicating Day Schedule Name
  DefaultMultipliers,                     ! Dry-Bulb Temperature Range Modifier Type
  ,                                       ! Dry-Bulb Temperature Range Modifier Schedule Name
  ASHRAEClearSky;                         ! Solar Model Indicator

OS:ComponentData,
  {2789108d-e8da-426c-ad21-e504ea989997}, ! Handle
  Component Data 1,                       ! Name
  {2167b8a3-ed3f-498f-be2b-bfd30cd7aa8f}, ! UUID
  {82fa2573-9765-48db-be1c-b8904db58381}, ! Version UUID
  1366310738,                             ! Creation Timestamp
  1366310738,                             ! Version Timestamp
  {ee5f5558-ba4b-4142-96f4-7083730a7404}; ! Name of Object 1

