
OS:Version,
  {e333b967-3029-44df-a0d5-e62b4b1a06ef}, ! Handle
  0.9.3;                                  ! Version Identifier

OS:SizingPeriod:DesignDay,
  {304143e1-c907-481f-bc2b-87ddc9ef7b31}, ! Handle
  Austin Ann Clg 1% Condns DP=>MDB,       ! Name
  27.3,                                   ! Maximum Dry-Bulb Temperature {C}
  12.5,                                   ! Daily Dry-Bulb Temperature Range {deltaC}
  24.4,                                   ! Humidity Indicating Conditions at Maximum Dry-Bulb {BasedOnField A3}
  99075,                                  ! Barometric Pressure {Pa}
  3.7,                                    ! Wind Speed {m/s}
  190,                                    ! Wind Direction {deg}
  0,                                      ! Sky Clearness
  0,                                      ! Rain Indicator
  0,                                      ! Snow Indicator
  21,                                     ! Day of Month
  8,                                      ! Month
  SummerDesignDay,                        ! Day Type
  0,                                      ! Daylight Saving Time Indicator
  Dewpoint,                               ! Humidity Indicating Type
  ,                                       ! Humidity Indicating Day Schedule Name
  DefaultMultipliers,                     ! Dry-Bulb Temperature Range Modifier Type
  ,                                       ! Dry-Bulb Temperature Range Modifier Schedule Name
  ASHRAETau,                              ! Solar Model Indicator
  ,                                       ! Beam Solar Day Schedule Name
  ,                                       ! Diffuse Solar Day Schedule Name
  0.457,                                  ! ASHRAE Taub {dimensionless}
  2.114;                                  ! ASHRAE Taud {dimensionless}

OS:ComponentData,
  {19ea9541-093c-4a2c-a3b2-1c1b7743a23b}, ! Handle
  Component Data 1,                       ! Name
  {7f40a171-b6c4-47c5-8876-39dfee0944a3}, ! UUID
  {bd96c80c-9a5b-46c4-a401-55de041a69b5}, ! Version UUID
  1366310583,                             ! Creation Timestamp
  1366310583,                             ! Version Timestamp
  {304143e1-c907-481f-bc2b-87ddc9ef7b31}; ! Name of Object 1

