
OS:Version,
  {a76a5227-c94b-4f60-b760-120e23091539}, ! Handle
  0.9.3;                                  ! Version Identifier

OS:SizingPeriod:DesignDay,
  {75916c83-94d6-46bc-8c0f-99f85f035e86}, ! Handle
  El Toro MCAS Ann Htg Wind 99% Condns WS=>MCDB, ! Name
  14.9,                                   ! Maximum Dry-Bulb Temperature {C}
  0,                                      ! Daily Dry-Bulb Temperature Range {deltaC}
  14.9,                                   ! Humidity Indicating Conditions at Maximum Dry-Bulb {BasedOnField A3}
  99939,                                  ! Barometric Pressure {Pa}
  8.2,                                    ! Wind Speed {m/s}
  90,                                     ! Wind Direction {deg}
  0,                                      ! Sky Clearness
  0,                                      ! Rain Indicator
  0,                                      ! Snow Indicator
  21,                                     ! Day of Month
  12,                                     ! Month
  WinterDesignDay,                        ! Day Type
  0,                                      ! Daylight Saving Time Indicator
  Wetbulb,                                ! Humidity Indicating Type
  ,                                       ! Humidity Indicating Day Schedule Name
  DefaultMultipliers,                     ! Dry-Bulb Temperature Range Modifier Type
  ,                                       ! Dry-Bulb Temperature Range Modifier Schedule Name
  ASHRAEClearSky;                         ! Solar Model Indicator

OS:ComponentData,
  {0556900f-a8bc-4056-885a-cf427edd8562}, ! Handle
  Component Data 1,                       ! Name
  {aee45a60-e8e7-4256-926f-593c05039778}, ! UUID
  {8b6e7c11-3ed7-4229-9155-a54cc350b13d}, ! Version UUID
  1366306422,                             ! Creation Timestamp
  1366306422,                             ! Version Timestamp
  {75916c83-94d6-46bc-8c0f-99f85f035e86}; ! Name of Object 1

