
OS:Version,
  {932c9e72-9eef-4221-8165-b8320edfcf0e}, ! Handle
  0.9.3;                                  ! Version Identifier

OS:SizingPeriod:DesignDay,
  {00b53031-87b9-41f2-9d8d-9230e5d51447}, ! Handle
  Dinwiddie Co Ann Clg 2% Condns WB=>MDB, ! Name
  31.6,                                   ! Maximum Dry-Bulb Temperature {C}
  12.5,                                   ! Daily Dry-Bulb Temperature Range {deltaC}
  25.6,                                   ! Humidity Indicating Conditions at Maximum Dry-Bulb {BasedOnField A3}
  100606,                                 ! Barometric Pressure {Pa}
  3,                                      ! Wind Speed {m/s}
  240,                                    ! Wind Direction {deg}
  0,                                      ! Sky Clearness
  0,                                      ! Rain Indicator
  0,                                      ! Snow Indicator
  21,                                     ! Day of Month
  7,                                      ! Month
  SummerDesignDay,                        ! Day Type
  0,                                      ! Daylight Saving Time Indicator
  Wetbulb,                                ! Humidity Indicating Type
  ,                                       ! Humidity Indicating Day Schedule Name
  DefaultMultipliers,                     ! Dry-Bulb Temperature Range Modifier Type
  ,                                       ! Dry-Bulb Temperature Range Modifier Schedule Name
  ASHRAETau,                              ! Solar Model Indicator
  ,                                       ! Beam Solar Day Schedule Name
  ,                                       ! Diffuse Solar Day Schedule Name
  0.569,                                  ! ASHRAE Taub {dimensionless}
  1.737;                                  ! ASHRAE Taud {dimensionless}

OS:ComponentData,
  {af56ca15-1bf7-4cb2-a068-8586edd4725a}, ! Handle
  Component Data 1,                       ! Name
  {06abf04a-0374-421c-99eb-665f0946659e}, ! UUID
  {c908a800-c423-4ca1-88a7-26dedab2d2ad}, ! Version UUID
  1366311151,                             ! Creation Timestamp
  1366311151,                             ! Version Timestamp
  {00b53031-87b9-41f2-9d8d-9230e5d51447}; ! Name of Object 1

