
OS:Version,
  {b13ce3d5-9c1d-444f-8fe5-f39606a4a051}, ! Handle
  0.9.3;                                  ! Version Identifier

OS:SizingPeriod:DesignDay,
  {adb943fe-d02b-4465-adb4-7421e4fbd0e9}, ! Handle
  Devils Lake Awos Ann Clg 1% Condns Enth=>MDB, ! Name
  26.9,                                   ! Maximum Dry-Bulb Temperature {C}
  9.6,                                    ! Daily Dry-Bulb Temperature Range {deltaC}
  63300,                                  ! Humidity Indicating Conditions at Maximum Dry-Bulb {BasedOnField A3}
  96115,                                  ! Barometric Pressure {Pa}
  5.4,                                    ! Wind Speed {m/s}
  170,                                    ! Wind Direction {deg}
  0,                                      ! Sky Clearness
  0,                                      ! Rain Indicator
  0,                                      ! Snow Indicator
  21,                                     ! Day of Month
  7,                                      ! Month
  SummerDesignDay,                        ! Day Type
  0,                                      ! Daylight Saving Time Indicator
  Enthalpy,                               ! Humidity Indicating Type
  ,                                       ! Humidity Indicating Day Schedule Name
  DefaultMultipliers,                     ! Dry-Bulb Temperature Range Modifier Type
  ,                                       ! Dry-Bulb Temperature Range Modifier Schedule Name
  ASHRAETau,                              ! Solar Model Indicator
  ,                                       ! Beam Solar Day Schedule Name
  ,                                       ! Diffuse Solar Day Schedule Name
  0.392,                                  ! ASHRAE Taub {dimensionless}
  2.235;                                  ! ASHRAE Taud {dimensionless}

OS:ComponentData,
  {ab439809-0a95-44a1-b220-9e65ee8acbc4}, ! Handle
  Component Data 1,                       ! Name
  {ed2a3034-d292-453f-bcc3-531af53875f7}, ! UUID
  {3a1b7a95-91df-4309-a099-8cb4eba3020f}, ! Version UUID
  1366309012,                             ! Creation Timestamp
  1366309012,                             ! Version Timestamp
  {adb943fe-d02b-4465-adb4-7421e4fbd0e9}; ! Name of Object 1

