
OS:Version,
  {506f1457-ed7b-4916-a5f7-cc016bde5d77}, ! Handle
  0.9.3;                                  ! Version Identifier

OS:SizingPeriod:DesignDay,
  {3d46fc15-ccde-4c14-b8a2-4504f4eca740}, ! Handle
  Chanute Martin Johnson Ap Ann Clg 1% Condns Enth=>MDB, ! Name
  32.2,                                   ! Maximum Dry-Bulb Temperature {C}
  11.4,                                   ! Daily Dry-Bulb Temperature Range {deltaC}
  79500,                                  ! Humidity Indicating Conditions at Maximum Dry-Bulb {BasedOnField A3}
  97796,                                  ! Barometric Pressure {Pa}
  5.5,                                    ! Wind Speed {m/s}
  190,                                    ! Wind Direction {deg}
  0,                                      ! Sky Clearness
  0,                                      ! Rain Indicator
  0,                                      ! Snow Indicator
  21,                                     ! Day of Month
  7,                                      ! Month
  SummerDesignDay,                        ! Day Type
  0,                                      ! Daylight Saving Time Indicator
  Enthalpy,                               ! Humidity Indicating Type
  ,                                       ! Humidity Indicating Day Schedule Name
  DefaultMultipliers,                     ! Dry-Bulb Temperature Range Modifier Type
  ,                                       ! Dry-Bulb Temperature Range Modifier Schedule Name
  ASHRAETau,                              ! Solar Model Indicator
  ,                                       ! Beam Solar Day Schedule Name
  ,                                       ! Diffuse Solar Day Schedule Name
  0.434,                                  ! ASHRAE Taub {dimensionless}
  2.169;                                  ! ASHRAE Taud {dimensionless}

OS:ComponentData,
  {02a9475c-abfe-40f4-8343-c519452e4079}, ! Handle
  Component Data 1,                       ! Name
  {f369463c-4160-4613-a613-6f7c946b9e57}, ! UUID
  {e8bbd12b-5849-4ea3-9160-cd4d7b7430de}, ! Version UUID
  1366307498,                             ! Creation Timestamp
  1366307498,                             ! Version Timestamp
  {3d46fc15-ccde-4c14-b8a2-4504f4eca740}; ! Name of Object 1

