
OS:Version,
  {bc019407-8a67-4e83-ad29-f871b9e410a6}, ! Handle
  0.9.3;                                  ! Version Identifier

OS:SizingPeriod:DesignDay,
  {3933b2ae-0332-4ee9-a864-bb4f5ea40053}, ! Handle
  Hanford Ann Clg .4% Condns DP=>MDB,     ! Name
  22.4,                                   ! Maximum Dry-Bulb Temperature {C}
  15.1,                                   ! Daily Dry-Bulb Temperature Range {deltaC}
  14.3,                                   ! Humidity Indicating Conditions at Maximum Dry-Bulb {BasedOnField A3}
  98675,                                  ! Barometric Pressure {Pa}
  3.3,                                    ! Wind Speed {m/s}
  0,                                      ! Wind Direction {deg}
  0,                                      ! Sky Clearness
  0,                                      ! Rain Indicator
  0,                                      ! Snow Indicator
  21,                                     ! Day of Month
  7,                                      ! Month
  SummerDesignDay,                        ! Day Type
  0,                                      ! Daylight Saving Time Indicator
  Dewpoint,                               ! Humidity Indicating Type
  ,                                       ! Humidity Indicating Day Schedule Name
  DefaultMultipliers,                     ! Dry-Bulb Temperature Range Modifier Type
  ,                                       ! Dry-Bulb Temperature Range Modifier Schedule Name
  ASHRAETau,                              ! Solar Model Indicator
  ,                                       ! Beam Solar Day Schedule Name
  ,                                       ! Diffuse Solar Day Schedule Name
  0.387,                                  ! ASHRAE Taub {dimensionless}
  2.251;                                  ! ASHRAE Taud {dimensionless}

OS:ComponentData,
  {b0cdf6e9-c395-4cdc-8b8e-dedbf2fc9761}, ! Handle
  Component Data 1,                       ! Name
  {09583711-8e80-4099-a74c-391b2537ea6f}, ! UUID
  {01ed33d4-e871-4287-91aa-6697110c6272}, ! Version UUID
  1366311287,                             ! Creation Timestamp
  1366311287,                             ! Version Timestamp
  {3933b2ae-0332-4ee9-a864-bb4f5ea40053}; ! Name of Object 1

