
OS:Version,
  {17e4164e-b4e3-4adf-881d-a1946069ba70}, ! Handle
  0.9.3;                                  ! Version Identifier

OS:SizingPeriod:DesignDay,
  {5842da11-6d7c-44e5-8c92-1c286d614cc9}, ! Handle
  Goldsboro Seymour Johnson Afb Ann Clg .4% Condns DB=>MWB, ! Name
  35.8,                                   ! Maximum Dry-Bulb Temperature {C}
  10,                                     ! Daily Dry-Bulb Temperature Range {deltaC}
  25,                                     ! Humidity Indicating Conditions at Maximum Dry-Bulb {BasedOnField A3}
  100929,                                 ! Barometric Pressure {Pa}
  3.5,                                    ! Wind Speed {m/s}
  230,                                    ! Wind Direction {deg}
  0,                                      ! Sky Clearness
  0,                                      ! Rain Indicator
  0,                                      ! Snow Indicator
  21,                                     ! Day of Month
  7,                                      ! Month
  SummerDesignDay,                        ! Day Type
  0,                                      ! Daylight Saving Time Indicator
  Wetbulb,                                ! Humidity Indicating Type
  ,                                       ! Humidity Indicating Day Schedule Name
  DefaultMultipliers,                     ! Dry-Bulb Temperature Range Modifier Type
  ,                                       ! Dry-Bulb Temperature Range Modifier Schedule Name
  ASHRAETau,                              ! Solar Model Indicator
  ,                                       ! Beam Solar Day Schedule Name
  ,                                       ! Diffuse Solar Day Schedule Name
  0.598,                                  ! ASHRAE Taub {dimensionless}
  1.681;                                  ! ASHRAE Taud {dimensionless}

