
OS:Version,
  {f1f1250c-ccd7-44b2-bc69-4f4fadd34a38}, ! Handle
  0.9.3;                                  ! Version Identifier

OS:SizingPeriod:DesignDay,
  {e4466a48-eeb8-4903-95db-6685a5cb0240}, ! Handle
  Helena Ann Clg .4% Condns Enth=>MDB,    ! Name
  29,                                     ! Maximum Dry-Bulb Temperature {C}
  16.1,                                   ! Daily Dry-Bulb Temperature Range {deltaC}
  55400,                                  ! Humidity Indicating Conditions at Maximum Dry-Bulb {BasedOnField A3}
  87844,                                  ! Barometric Pressure {Pa}
  4.9,                                    ! Wind Speed {m/s}
  290,                                    ! Wind Direction {deg}
  0,                                      ! Sky Clearness
  0,                                      ! Rain Indicator
  0,                                      ! Snow Indicator
  21,                                     ! Day of Month
  7,                                      ! Month
  SummerDesignDay,                        ! Day Type
  0,                                      ! Daylight Saving Time Indicator
  Enthalpy,                               ! Humidity Indicating Type
  ,                                       ! Humidity Indicating Day Schedule Name
  DefaultMultipliers,                     ! Dry-Bulb Temperature Range Modifier Type
  ,                                       ! Dry-Bulb Temperature Range Modifier Schedule Name
  ASHRAETau,                              ! Solar Model Indicator
  ,                                       ! Beam Solar Day Schedule Name
  ,                                       ! Diffuse Solar Day Schedule Name
  0.38,                                   ! ASHRAE Taub {dimensionless}
  2.232;                                  ! ASHRAE Taud {dimensionless}

OS:ComponentData,
  {dcb434d4-9f83-48d9-8068-ae8ecb90f875}, ! Handle
  Component Data 1,                       ! Name
  {c711522f-0657-4177-9b98-e39ce2ed7a9f}, ! UUID
  {7926792b-03eb-47b2-adb2-9c1cbf41216e}, ! Version UUID
  1366308794,                             ! Creation Timestamp
  1366308794,                             ! Version Timestamp
  {e4466a48-eeb8-4903-95db-6685a5cb0240}; ! Name of Object 1

