
OS:Version,
  {9710e13e-7769-4287-a6d3-8e6c6e345f6e}, ! Handle
  0.9.3;                                  ! Version Identifier

OS:SizingPeriod:DesignDay,
  {cf96cafe-3608-4d8c-9406-e9d820f259fe}, ! Handle
  Florence Regional Ap Ann Clg .4% Condns WB=>MDB, ! Name
  32.4,                                   ! Maximum Dry-Bulb Temperature {C}
  10.6,                                   ! Daily Dry-Bulb Temperature Range {deltaC}
  26.4,                                   ! Humidity Indicating Conditions at Maximum Dry-Bulb {BasedOnField A3}
  100798,                                 ! Barometric Pressure {Pa}
  4.1,                                    ! Wind Speed {m/s}
  230,                                    ! Wind Direction {deg}
  0,                                      ! Sky Clearness
  0,                                      ! Rain Indicator
  0,                                      ! Snow Indicator
  21,                                     ! Day of Month
  7,                                      ! Month
  SummerDesignDay,                        ! Day Type
  0,                                      ! Daylight Saving Time Indicator
  Wetbulb,                                ! Humidity Indicating Type
  ,                                       ! Humidity Indicating Day Schedule Name
  DefaultMultipliers,                     ! Dry-Bulb Temperature Range Modifier Type
  ,                                       ! Dry-Bulb Temperature Range Modifier Schedule Name
  ASHRAETau,                              ! Solar Model Indicator
  ,                                       ! Beam Solar Day Schedule Name
  ,                                       ! Diffuse Solar Day Schedule Name
  0.573,                                  ! ASHRAE Taub {dimensionless}
  1.746;                                  ! ASHRAE Taud {dimensionless}

OS:ComponentData,
  {2ebed7f0-dc96-49dc-9f4d-ab1f68c9d015}, ! Handle
  Component Data 1,                       ! Name
  {1f15229b-658c-4f4e-9414-4d88e10c566b}, ! UUID
  {2b115e3a-faa2-42b9-a2ca-7cab6178b8ac}, ! Version UUID
  1366310352,                             ! Creation Timestamp
  1366310352,                             ! Version Timestamp
  {cf96cafe-3608-4d8c-9406-e9d820f259fe}; ! Name of Object 1

