
OS:Version,
  {524d0b07-a3fd-4cfc-8510-849ae0ffafba}, ! Handle
  0.9.3;                                  ! Version Identifier

OS:SizingPeriod:DesignDay,
  {63f31c37-7cf1-4686-9447-d4468582df13}, ! Handle
  Louisville Bowman Field Ann Clg 1% Condns DP=>MDB, ! Name
  28,                                     ! Maximum Dry-Bulb Temperature {C}
  10.1,                                   ! Daily Dry-Bulb Temperature Range {deltaC}
  23.5,                                   ! Humidity Indicating Conditions at Maximum Dry-Bulb {BasedOnField A3}
  99358,                                  ! Barometric Pressure {Pa}
  3.2,                                    ! Wind Speed {m/s}
  240,                                    ! Wind Direction {deg}
  0,                                      ! Sky Clearness
  0,                                      ! Rain Indicator
  0,                                      ! Snow Indicator
  21,                                     ! Day of Month
  7,                                      ! Month
  SummerDesignDay,                        ! Day Type
  0,                                      ! Daylight Saving Time Indicator
  Dewpoint,                               ! Humidity Indicating Type
  ,                                       ! Humidity Indicating Day Schedule Name
  DefaultMultipliers,                     ! Dry-Bulb Temperature Range Modifier Type
  ,                                       ! Dry-Bulb Temperature Range Modifier Schedule Name
  ASHRAETau,                              ! Solar Model Indicator
  ,                                       ! Beam Solar Day Schedule Name
  ,                                       ! Diffuse Solar Day Schedule Name
  0.508,                                  ! ASHRAE Taub {dimensionless}
  1.877;                                  ! ASHRAE Taud {dimensionless}

OS:ComponentData,
  {52fb27a0-0d4e-4b54-bca5-845aefa7b412}, ! Handle
  Component Data 1,                       ! Name
  {98fcc518-7872-4e6e-8cf5-8e09a9462de8}, ! UUID
  {de45bb3b-8ba3-437e-9262-97ddabf1332e}, ! Version UUID
  1366307664,                             ! Creation Timestamp
  1366307664,                             ! Version Timestamp
  {63f31c37-7cf1-4686-9447-d4468582df13}; ! Name of Object 1

