
OS:Version,
  {90901331-0084-4c34-9588-93ab60dd7ab9}, ! Handle
  0.9.3;                                  ! Version Identifier

OS:SizingPeriod:DesignDay,
  {62a76513-e6a0-49ae-b791-8de193b83ae1}, ! Handle
  Covington/Cincinnati O Ann Htg 99% Condns DB, ! Name
  -12.1,                                  ! Maximum Dry-Bulb Temperature {C}
  0,                                      ! Daily Dry-Bulb Temperature Range {deltaC}
  -12.1,                                  ! Humidity Indicating Conditions at Maximum Dry-Bulb {BasedOnField A3}
  98158,                                  ! Barometric Pressure {Pa}
  3.8,                                    ! Wind Speed {m/s}
  280,                                    ! Wind Direction {deg}
  0,                                      ! Sky Clearness
  0,                                      ! Rain Indicator
  0,                                      ! Snow Indicator
  21,                                     ! Day of Month
  1,                                      ! Month
  WinterDesignDay,                        ! Day Type
  0,                                      ! Daylight Saving Time Indicator
  Wetbulb,                                ! Humidity Indicating Type
  ,                                       ! Humidity Indicating Day Schedule Name
  DefaultMultipliers,                     ! Dry-Bulb Temperature Range Modifier Type
  ,                                       ! Dry-Bulb Temperature Range Modifier Schedule Name
  ASHRAEClearSky;                         ! Solar Model Indicator

OS:ComponentData,
  {3af2c8db-395a-449d-9c66-2e187b5b79d5}, ! Handle
  Component Data 1,                       ! Name
  {76b925dd-9a5a-415a-b0da-9926545a076c}, ! UUID
  {f77b591c-2a64-411c-915f-5e75c68e7886}, ! Version UUID
  1366307614,                             ! Creation Timestamp
  1366307614,                             ! Version Timestamp
  {62a76513-e6a0-49ae-b791-8de193b83ae1}; ! Name of Object 1

