
OS:Version,
  {960f5c5b-f5ea-4750-aaa7-d7514195ece1}, ! Handle
  0.9.3;                                  ! Version Identifier

OS:SizingPeriod:DesignDay,
  {c54bbad7-9c53-4d79-bc16-0cbe2f38d0de}, ! Handle
  Cape Girardeau Municipal Ap Ann Htg 99% Condns DB, ! Name
  -10.1,                                  ! Maximum Dry-Bulb Temperature {C}
  0,                                      ! Daily Dry-Bulb Temperature Range {deltaC}
  -10.1,                                  ! Humidity Indicating Conditions at Maximum Dry-Bulb {BasedOnField A3}
  100094,                                 ! Barometric Pressure {Pa}
  3.7,                                    ! Wind Speed {m/s}
  340,                                    ! Wind Direction {deg}
  0,                                      ! Sky Clearness
  0,                                      ! Rain Indicator
  0,                                      ! Snow Indicator
  21,                                     ! Day of Month
  1,                                      ! Month
  WinterDesignDay,                        ! Day Type
  0,                                      ! Daylight Saving Time Indicator
  Wetbulb,                                ! Humidity Indicating Type
  ,                                       ! Humidity Indicating Day Schedule Name
  DefaultMultipliers,                     ! Dry-Bulb Temperature Range Modifier Type
  ,                                       ! Dry-Bulb Temperature Range Modifier Schedule Name
  ASHRAEClearSky;                         ! Solar Model Indicator

OS:ComponentData,
  {8d79611d-18e1-4e9c-a321-da012dea7b99}, ! Handle
  Component Data 1,                       ! Name
  {e9949137-164e-488e-a086-ff9e0178b488}, ! UUID
  {ba3ad7da-41c9-4333-9ec3-b72a7a42f589}, ! Version UUID
  1366308473,                             ! Creation Timestamp
  1366308473,                             ! Version Timestamp
  {c54bbad7-9c53-4d79-bc16-0cbe2f38d0de}; ! Name of Object 1

