
OS:Version,
  {7cd3eed7-bcf1-4213-828b-23bed11259fc}, ! Handle
  0.9.3;                                  ! Version Identifier

OS:SizingPeriod:DesignDay,
  {0d873d5f-21bf-4200-a75e-9b773c3fa478}, ! Handle
  Hilo International Ap Ann Hum_n 99.6% Condns DP=>MCDB, ! Name
  18.1,                                   ! Maximum Dry-Bulb Temperature {C}
  0,                                      ! Daily Dry-Bulb Temperature Range {deltaC}
  10.7,                                   ! Humidity Indicating Conditions at Maximum Dry-Bulb {BasedOnField A3}
  101217,                                 ! Barometric Pressure {Pa}
  2.8,                                    ! Wind Speed {m/s}
  220,                                    ! Wind Direction {deg}
  0,                                      ! Sky Clearness
  0,                                      ! Rain Indicator
  0,                                      ! Snow Indicator
  21,                                     ! Day of Month
  2,                                      ! Month
  WinterDesignDay,                        ! Day Type
  0,                                      ! Daylight Saving Time Indicator
  Dewpoint,                               ! Humidity Indicating Type
  ,                                       ! Humidity Indicating Day Schedule Name
  DefaultMultipliers,                     ! Dry-Bulb Temperature Range Modifier Type
  ,                                       ! Dry-Bulb Temperature Range Modifier Schedule Name
  ASHRAEClearSky;                         ! Solar Model Indicator

OS:ComponentData,
  {9a82efbd-fbbd-495c-aec3-0731dc68eb23}, ! Handle
  Component Data 1,                       ! Name
  {e03d662e-4c83-4c8a-9d0b-25d9aebb527b}, ! UUID
  {9b1ed017-a877-4b07-a38a-b762c26823e0}, ! Version UUID
  1366307083,                             ! Creation Timestamp
  1366307083,                             ! Version Timestamp
  {0d873d5f-21bf-4200-a75e-9b773c3fa478}; ! Name of Object 1

