
OS:Version,
  {3d292540-5591-4073-887a-0c83c0fad9f6}, ! Handle
  0.9.3;                                  ! Version Identifier

OS:SizingPeriod:DesignDay,
  {01bc209a-be15-4622-96f5-8977dc2f14f7}, ! Handle
  AUSTIN Ann Clg 1% Condns Enth=>MDB,     ! Name
  31.7,                                   ! Maximum Dry-Bulb Temperature {C}
  12.5,                                   ! Daily Dry-Bulb Temperature Range {deltaC}
  80000,                                  ! Humidity Indicating Conditions at Maximum Dry-Bulb {BasedOnField A3}
  99075,                                  ! Barometric Pressure {Pa}
  3.7,                                    ! Wind Speed {m/s}
  190,                                    ! Wind Direction {deg}
  0,                                      ! Sky Clearness
  0,                                      ! Rain Indicator
  0,                                      ! Snow Indicator
  21,                                     ! Day of Month
  8,                                      ! Month
  SummerDesignDay,                        ! Day Type
  0,                                      ! Daylight Saving Time Indicator
  Enthalpy,                               ! Humidity Indicating Type
  ,                                       ! Humidity Indicating Day Schedule Name
  DefaultMultipliers,                     ! Dry-Bulb Temperature Range Modifier Type
  ,                                       ! Dry-Bulb Temperature Range Modifier Schedule Name
  ASHRAETau,                              ! Solar Model Indicator
  ,                                       ! Beam Solar Day Schedule Name
  ,                                       ! Diffuse Solar Day Schedule Name
  0.457,                                  ! ASHRAE Taub {dimensionless}
  2.114;                                  ! ASHRAE Taud {dimensionless}

OS:ComponentData,
  {b94effc0-2ab6-40a9-880b-074acdaf12ea}, ! Handle
  Component Data 1,                       ! Name
  {6b60ee4c-7dfb-4fed-8478-b1eecdca8411}, ! UUID
  {e117ea65-66ec-4294-8eaa-f7e3cb9566f6}, ! Version UUID
  1366310591,                             ! Creation Timestamp
  1366310591,                             ! Version Timestamp
  {01bc209a-be15-4622-96f5-8977dc2f14f7}; ! Name of Object 1

