
OS:Version,
  {d09afffd-56bc-4585-84a4-41697f09eb91}, ! Handle
  0.9.3;                                  ! Version Identifier

OS:SizingPeriod:DesignDay,
  {66761a15-162d-49fe-b802-bd27f75e247f}, ! Handle
  Lansing Capital City Arpt Ann Clg 2% Condns DP=>MDB, ! Name
  25.4,                                   ! Maximum Dry-Bulb Temperature {C}
  12,                                     ! Daily Dry-Bulb Temperature Range {deltaC}
  21.2,                                   ! Humidity Indicating Conditions at Maximum Dry-Bulb {BasedOnField A3}
  98287,                                  ! Barometric Pressure {Pa}
  5.6,                                    ! Wind Speed {m/s}
  240,                                    ! Wind Direction {deg}
  0,                                      ! Sky Clearness
  0,                                      ! Rain Indicator
  0,                                      ! Snow Indicator
  21,                                     ! Day of Month
  7,                                      ! Month
  SummerDesignDay,                        ! Day Type
  0,                                      ! Daylight Saving Time Indicator
  Dewpoint,                               ! Humidity Indicating Type
  ,                                       ! Humidity Indicating Day Schedule Name
  DefaultMultipliers,                     ! Dry-Bulb Temperature Range Modifier Type
  ,                                       ! Dry-Bulb Temperature Range Modifier Schedule Name
  ASHRAETau,                              ! Solar Model Indicator
  ,                                       ! Beam Solar Day Schedule Name
  ,                                       ! Diffuse Solar Day Schedule Name
  0.429,                                  ! ASHRAE Taub {dimensionless}
  2.133;                                  ! ASHRAE Taud {dimensionless}

OS:ComponentData,
  {7abe03f8-4ff1-463d-900c-b63f990d8185}, ! Handle
  Component Data 1,                       ! Name
  {5409d464-f0fc-40ce-989e-702f85f3a29c}, ! UUID
  {2915f269-7e01-48ca-acc1-4b247b42c4db}, ! Version UUID
  1366308053,                             ! Creation Timestamp
  1366308053,                             ! Version Timestamp
  {66761a15-162d-49fe-b802-bd27f75e247f}; ! Name of Object 1

