
OS:Version,
  {f4ca979b-4e74-4952-b450-5ed4c34b7456}, ! Handle
  0.9.3;                                  ! Version Identifier

OS:SizingPeriod:DesignDay,
  {d37cf8bd-6ada-4f51-a7a2-963e1b83425e}, ! Handle
  KODIAK Ann Clg .4% Condns WB=>MDB,      ! Name
  19.1,                                   ! Maximum Dry-Bulb Temperature {C}
  6.4,                                    ! Daily Dry-Bulb Temperature Range {deltaC}
  15.1,                                   ! Humidity Indicating Conditions at Maximum Dry-Bulb {BasedOnField A3}
  100917,                                 ! Barometric Pressure {Pa}
  5.2,                                    ! Wind Speed {m/s}
  310,                                    ! Wind Direction {deg}
  0,                                      ! Sky Clearness
  0,                                      ! Rain Indicator
  0,                                      ! Snow Indicator
  21,                                     ! Day of Month
  8,                                      ! Month
  SummerDesignDay,                        ! Day Type
  0,                                      ! Daylight Saving Time Indicator
  Wetbulb,                                ! Humidity Indicating Type
  ,                                       ! Humidity Indicating Day Schedule Name
  DefaultMultipliers,                     ! Dry-Bulb Temperature Range Modifier Type
  ,                                       ! Dry-Bulb Temperature Range Modifier Schedule Name
  ASHRAETau,                              ! Solar Model Indicator
  ,                                       ! Beam Solar Day Schedule Name
  ,                                       ! Diffuse Solar Day Schedule Name
  0.36,                                   ! ASHRAE Taub {dimensionless}
  2.361;                                  ! ASHRAE Taud {dimensionless}

OS:ComponentData,
  {2a1f385c-6b3a-47aa-8513-79f4f0543a72}, ! Handle
  Component Data 1,                       ! Name
  {f6495408-f5b6-4de9-9c38-e7906205caef}, ! UUID
  {62e2792c-89c8-4585-b8c4-354450081e21}, ! Version UUID
  1366305371,                             ! Creation Timestamp
  1366305371,                             ! Version Timestamp
  {d37cf8bd-6ada-4f51-a7a2-963e1b83425e}; ! Name of Object 1

