
OS:Version,
  {1ed315d5-9583-481e-bf51-6aacb4fa0869}, ! Handle
  0.9.3;                                  ! Version Identifier

OS:SizingPeriod:DesignDay,
  {81977432-2c5d-45ad-880b-90b0106e3392}, ! Handle
  BINGHAMTON Ann Clg 1% Condns DP=>MDB,   ! Name
  23.8,                                   ! Maximum Dry-Bulb Temperature {C}
  9.7,                                    ! Daily Dry-Bulb Temperature Range {deltaC}
  20.3,                                   ! Humidity Indicating Conditions at Maximum Dry-Bulb {BasedOnField A3}
  95472,                                  ! Barometric Pressure {Pa}
  4.6,                                    ! Wind Speed {m/s}
  240,                                    ! Wind Direction {deg}
  0,                                      ! Sky Clearness
  0,                                      ! Rain Indicator
  0,                                      ! Snow Indicator
  21,                                     ! Day of Month
  7,                                      ! Month
  SummerDesignDay,                        ! Day Type
  0,                                      ! Daylight Saving Time Indicator
  Dewpoint,                               ! Humidity Indicating Type
  ,                                       ! Humidity Indicating Day Schedule Name
  DefaultMultipliers,                     ! Dry-Bulb Temperature Range Modifier Type
  ,                                       ! Dry-Bulb Temperature Range Modifier Schedule Name
  ASHRAETau,                              ! Solar Model Indicator
  ,                                       ! Beam Solar Day Schedule Name
  ,                                       ! Diffuse Solar Day Schedule Name
  0.452,                                  ! ASHRAE Taub {dimensionless}
  2.004;                                  ! ASHRAE Taud {dimensionless}

OS:ComponentData,
  {81d860e2-1c5d-451c-9a0c-8ca447858c45}, ! Handle
  Component Data 1,                       ! Name
  {90ccb8c3-17f9-4202-a7ae-ab9988604685}, ! UUID
  {08c1fcef-e29e-45ba-9f57-00c432daeb18}, ! Version UUID
  1366309599,                             ! Creation Timestamp
  1366309599,                             ! Version Timestamp
  {81977432-2c5d-45ad-880b-90b0106e3392}; ! Name of Object 1

