
OS:Version,
  {f0a6dddd-aaeb-49be-9834-380013ca65b0}, ! Handle
  0.9.3;                                  ! Version Identifier

OS:SizingPeriod:DesignDay,
  {de41b963-6d46-4746-a653-c72085674340}, ! Handle
  Hays Muni  Awos Ann Clg 2% Condns WB=>MDB, ! Name
  31.6,                                   ! Maximum Dry-Bulb Temperature {C}
  14.1,                                   ! Daily Dry-Bulb Temperature Range {deltaC}
  22.4,                                   ! Humidity Indicating Conditions at Maximum Dry-Bulb {BasedOnField A3}
  94220,                                  ! Barometric Pressure {Pa}
  7.9,                                    ! Wind Speed {m/s}
  190,                                    ! Wind Direction {deg}
  0,                                      ! Sky Clearness
  0,                                      ! Rain Indicator
  0,                                      ! Snow Indicator
  21,                                     ! Day of Month
  7,                                      ! Month
  SummerDesignDay,                        ! Day Type
  0,                                      ! Daylight Saving Time Indicator
  Wetbulb,                                ! Humidity Indicating Type
  ,                                       ! Humidity Indicating Day Schedule Name
  DefaultMultipliers,                     ! Dry-Bulb Temperature Range Modifier Type
  ,                                       ! Dry-Bulb Temperature Range Modifier Schedule Name
  ASHRAETau,                              ! Solar Model Indicator
  ,                                       ! Beam Solar Day Schedule Name
  ,                                       ! Diffuse Solar Day Schedule Name
  0.433,                                  ! ASHRAE Taub {dimensionless}
  2.099;                                  ! ASHRAE Taud {dimensionless}

OS:ComponentData,
  {82de5a90-8232-46b7-ad96-cb4a97771c32}, ! Handle
  Component Data 1,                       ! Name
  {09a8c562-d04d-4ef8-936b-5c7c4c4f75ad}, ! UUID
  {c76aabd0-0cfb-4425-98ed-0e6211600c3a}, ! Version UUID
  1366307546,                             ! Creation Timestamp
  1366307546,                             ! Version Timestamp
  {de41b963-6d46-4746-a653-c72085674340}; ! Name of Object 1

