
OS:Version,
  {c8b4aab5-9060-459d-bcc8-d0f67ea0df46}, ! Handle
  0.9.3;                                  ! Version Identifier

OS:SizingPeriod:DesignDay,
  {75e1c709-75e1-4b61-9ca6-0d73d33122bf}, ! Handle
  Fort Worth/Meacham Fie Ann Htg Wind 99% Condns WS=>MCDB, ! Name
  11,                                     ! Maximum Dry-Bulb Temperature {C}
  0,                                      ! Daily Dry-Bulb Temperature Range {deltaC}
  11,                                     ! Humidity Indicating Conditions at Maximum Dry-Bulb {BasedOnField A3}
  98757,                                  ! Barometric Pressure {Pa}
  8.8,                                    ! Wind Speed {m/s}
  0,                                      ! Wind Direction {deg}
  0,                                      ! Sky Clearness
  0,                                      ! Rain Indicator
  0,                                      ! Snow Indicator
  21,                                     ! Day of Month
  1,                                      ! Month
  WinterDesignDay,                        ! Day Type
  0,                                      ! Daylight Saving Time Indicator
  Wetbulb,                                ! Humidity Indicating Type
  ,                                       ! Humidity Indicating Day Schedule Name
  DefaultMultipliers,                     ! Dry-Bulb Temperature Range Modifier Type
  ,                                       ! Dry-Bulb Temperature Range Modifier Schedule Name
  ASHRAEClearSky;                         ! Solar Model Indicator

OS:ComponentData,
  {f125d72d-d518-45f6-86a0-678b82a1eec9}, ! Handle
  Component Data 1,                       ! Name
  {a534b39e-4756-4b84-9b0f-4aa0b33e4f3c}, ! UUID
  {94b927dd-36b1-46c1-b4de-19ef7a543683}, ! Version UUID
  1366310705,                             ! Creation Timestamp
  1366310705,                             ! Version Timestamp
  {75e1c709-75e1-4b61-9ca6-0d73d33122bf}; ! Name of Object 1

