
OS:Version,
  {7a6475db-62be-40ae-8598-0a7403176120}, ! Handle
  0.9.3;                                  ! Version Identifier

OS:SizingPeriod:DesignDay,
  {1609b147-a47a-46e4-a286-7eafe0a4ff2e}, ! Handle
  BETHEL Ann Clg 1% Condns DB=>MWB,       ! Name
  20.3,                                   ! Maximum Dry-Bulb Temperature {C}
  7.7,                                    ! Daily Dry-Bulb Temperature Range {deltaC}
  14,                                     ! Humidity Indicating Conditions at Maximum Dry-Bulb {BasedOnField A3}
  100774,                                 ! Barometric Pressure {Pa}
  4.9,                                    ! Wind Speed {m/s}
  10,                                     ! Wind Direction {deg}
  0,                                      ! Sky Clearness
  0,                                      ! Rain Indicator
  0,                                      ! Snow Indicator
  21,                                     ! Day of Month
  7,                                      ! Month
  SummerDesignDay,                        ! Day Type
  0,                                      ! Daylight Saving Time Indicator
  Wetbulb,                                ! Humidity Indicating Type
  ,                                       ! Humidity Indicating Day Schedule Name
  DefaultMultipliers,                     ! Dry-Bulb Temperature Range Modifier Type
  ,                                       ! Dry-Bulb Temperature Range Modifier Schedule Name
  ASHRAETau,                              ! Solar Model Indicator
  ,                                       ! Beam Solar Day Schedule Name
  ,                                       ! Diffuse Solar Day Schedule Name
  0.383,                                  ! ASHRAE Taub {dimensionless}
  2.185;                                  ! ASHRAE Taud {dimensionless}

OS:ComponentData,
  {255d1dcf-1db7-4114-8d02-be04eb11d12f}, ! Handle
  Component Data 1,                       ! Name
  {3cbc7d38-aea1-4af1-af39-3463c46c1a14}, ! UUID
  {d6497a11-a048-42c6-b362-24ec56874098}, ! Version UUID
  1366304747,                             ! Creation Timestamp
  1366304747,                             ! Version Timestamp
  {1609b147-a47a-46e4-a286-7eafe0a4ff2e}; ! Name of Object 1

