
OS:Version,
  {d1107c9b-1bff-4fa9-8825-8c314026a225}, ! Handle
  0.9.3;                                  ! Version Identifier

OS:SizingPeriod:DesignDay,
  {c1a3598f-49d9-4fdf-8aa4-e02f6b1947c0}, ! Handle
  BETHEL Ann Clg 1% Condns DB=>MWB,       ! Name
  20.3,                                   ! Maximum Dry-Bulb Temperature {C}
  7.7,                                    ! Daily Dry-Bulb Temperature Range {deltaC}
  14,                                     ! Humidity Indicating Conditions at Maximum Dry-Bulb {BasedOnField A3}
  100774,                                 ! Barometric Pressure {Pa}
  4.9,                                    ! Wind Speed {m/s}
  10,                                     ! Wind Direction {deg}
  0,                                      ! Sky Clearness
  0,                                      ! Rain Indicator
  0,                                      ! Snow Indicator
  21,                                     ! Day of Month
  7,                                      ! Month
  SummerDesignDay,                        ! Day Type
  0,                                      ! Daylight Saving Time Indicator
  Wetbulb,                                ! Humidity Indicating Type
  ,                                       ! Humidity Indicating Day Schedule Name
  DefaultMultipliers,                     ! Dry-Bulb Temperature Range Modifier Type
  ,                                       ! Dry-Bulb Temperature Range Modifier Schedule Name
  ASHRAETau,                              ! Solar Model Indicator
  ,                                       ! Beam Solar Day Schedule Name
  ,                                       ! Diffuse Solar Day Schedule Name
  0.383,                                  ! ASHRAE Taub {dimensionless}
  2.185;                                  ! ASHRAE Taud {dimensionless}

