
OS:Version,
  {cedeef92-ce3a-455c-a23f-e976f37d203c}, ! Handle
  0.9.3;                                  ! Version Identifier

OS:SizingPeriod:DesignDay,
  {7d97788f-37a1-42ff-84a0-33ae84d60349}, ! Handle
  Apalachicola Ann Clg 2% Condns Enth=>MDB, ! Name
  30.3,                                   ! Maximum Dry-Bulb Temperature {C}
  7.6,                                    ! Daily Dry-Bulb Temperature Range {deltaC}
  81400,                                  ! Humidity Indicating Conditions at Maximum Dry-Bulb {BasedOnField A3}
  101253,                                 ! Barometric Pressure {Pa}
  4.2,                                    ! Wind Speed {m/s}
  230,                                    ! Wind Direction {deg}
  0,                                      ! Sky Clearness
  0,                                      ! Rain Indicator
  0,                                      ! Snow Indicator
  21,                                     ! Day of Month
  8,                                      ! Month
  SummerDesignDay,                        ! Day Type
  0,                                      ! Daylight Saving Time Indicator
  Enthalpy,                               ! Humidity Indicating Type
  ,                                       ! Humidity Indicating Day Schedule Name
  DefaultMultipliers,                     ! Dry-Bulb Temperature Range Modifier Type
  ,                                       ! Dry-Bulb Temperature Range Modifier Schedule Name
  ASHRAETau,                              ! Solar Model Indicator
  ,                                       ! Beam Solar Day Schedule Name
  ,                                       ! Diffuse Solar Day Schedule Name
  0.51,                                   ! ASHRAE Taub {dimensionless}
  1.98;                                   ! ASHRAE Taud {dimensionless}

OS:ComponentData,
  {f6731b1c-5828-4ca1-ab67-7bef404da840}, ! Handle
  Component Data 1,                       ! Name
  {3922ca6e-3ac0-4ab3-bb34-2460741835fd}, ! UUID
  {23f31171-a1d2-4587-9e28-68ce5d3f5b73}, ! Version UUID
  1366306782,                             ! Creation Timestamp
  1366306782,                             ! Version Timestamp
  {7d97788f-37a1-42ff-84a0-33ae84d60349}; ! Name of Object 1

