
OS:Version,
  {a438a1f5-f4a8-44e8-9cac-d7c2e87a5ea8}, ! Handle
  0.9.3;                                  ! Version Identifier

OS:SizingPeriod:DesignDay,
  {9f1a7ae1-c290-467a-94a3-4c2caa282b85}, ! Handle
  Binghamton Edwin A Link Field Ann Clg .4% Condns Enth=>MDB, ! Name
  27.2,                                   ! Maximum Dry-Bulb Temperature {C}
  9.7,                                    ! Daily Dry-Bulb Temperature Range {deltaC}
  68900,                                  ! Humidity Indicating Conditions at Maximum Dry-Bulb {BasedOnField A3}
  95598,                                  ! Barometric Pressure {Pa}
  4.6,                                    ! Wind Speed {m/s}
  240,                                    ! Wind Direction {deg}
  0,                                      ! Sky Clearness
  0,                                      ! Rain Indicator
  0,                                      ! Snow Indicator
  21,                                     ! Day of Month
  7,                                      ! Month
  SummerDesignDay,                        ! Day Type
  0,                                      ! Daylight Saving Time Indicator
  Enthalpy,                               ! Humidity Indicating Type
  ,                                       ! Humidity Indicating Day Schedule Name
  DefaultMultipliers,                     ! Dry-Bulb Temperature Range Modifier Type
  ,                                       ! Dry-Bulb Temperature Range Modifier Schedule Name
  ASHRAETau,                              ! Solar Model Indicator
  ,                                       ! Beam Solar Day Schedule Name
  ,                                       ! Diffuse Solar Day Schedule Name
  0.452,                                  ! ASHRAE Taub {dimensionless}
  2.004;                                  ! ASHRAE Taud {dimensionless}

OS:ComponentData,
  {d3402ea5-9a91-4633-a0bd-54bf79067143}, ! Handle
  Component Data 1,                       ! Name
  {8643c8d0-f391-4b52-a3a9-b729467ce46e}, ! UUID
  {ec85feb7-1723-49e4-9bbf-f6c329ffcbaa}, ! Version UUID
  1366309595,                             ! Creation Timestamp
  1366309595,                             ! Version Timestamp
  {9f1a7ae1-c290-467a-94a3-4c2caa282b85}; ! Name of Object 1

