
OS:Version,
  {c2516ef4-fd1c-4c20-9a9a-d1a452d4399c}, ! Handle
  0.9.3;                                  ! Version Identifier

OS:SizingPeriod:DesignDay,
  {6bad691c-2c4e-430b-9540-29ca07a5d53a}, ! Handle
  Lufkin Angelina Co Ann Clg 2% Condns Enth=>MDB, ! Name
  31.5,                                   ! Maximum Dry-Bulb Temperature {C}
  11.4,                                   ! Daily Dry-Bulb Temperature Range {deltaC}
  80000,                                  ! Humidity Indicating Conditions at Maximum Dry-Bulb {BasedOnField A3}
  100296,                                 ! Barometric Pressure {Pa}
  3.4,                                    ! Wind Speed {m/s}
  200,                                    ! Wind Direction {deg}
  0,                                      ! Sky Clearness
  0,                                      ! Rain Indicator
  0,                                      ! Snow Indicator
  21,                                     ! Day of Month
  7,                                      ! Month
  SummerDesignDay,                        ! Day Type
  0,                                      ! Daylight Saving Time Indicator
  Enthalpy,                               ! Humidity Indicating Type
  ,                                       ! Humidity Indicating Day Schedule Name
  DefaultMultipliers,                     ! Dry-Bulb Temperature Range Modifier Type
  ,                                       ! Dry-Bulb Temperature Range Modifier Schedule Name
  ASHRAETau,                              ! Solar Model Indicator
  ,                                       ! Beam Solar Day Schedule Name
  ,                                       ! Diffuse Solar Day Schedule Name
  0.491,                                  ! ASHRAE Taub {dimensionless}
  2.003;                                  ! ASHRAE Taud {dimensionless}

OS:ComponentData,
  {11b2d600-4ebf-4a9f-96c3-8fa585d42814}, ! Handle
  Component Data 1,                       ! Name
  {3fabaa57-2b5b-4021-9fe9-47daa86d18e0}, ! UUID
  {13a1aae3-2b34-4907-833c-67a22efe95b2}, ! Version UUID
  1366310808,                             ! Creation Timestamp
  1366310808,                             ! Version Timestamp
  {6bad691c-2c4e-430b-9540-29ca07a5d53a}; ! Name of Object 1

