
OS:Version,
  {886346a1-1165-409f-b7ae-958f7fc00875}, ! Handle
  0.9.3;                                  ! Version Identifier

OS:SizingPeriod:DesignDay,
  {88164f78-d242-460b-a8b9-e30abfb73bf5}, ! Handle
  Bemidji Municipal Ann Clg 2% Condns WB=>MDB, ! Name
  25.6,                                   ! Maximum Dry-Bulb Temperature {C}
  10.7,                                   ! Daily Dry-Bulb Temperature Range {deltaC}
  20.2,                                   ! Humidity Indicating Conditions at Maximum Dry-Bulb {BasedOnField A3}
  96380,                                  ! Barometric Pressure {Pa}
  5.3,                                    ! Wind Speed {m/s}
  180,                                    ! Wind Direction {deg}
  0,                                      ! Sky Clearness
  0,                                      ! Rain Indicator
  0,                                      ! Snow Indicator
  21,                                     ! Day of Month
  7,                                      ! Month
  SummerDesignDay,                        ! Day Type
  0,                                      ! Daylight Saving Time Indicator
  Wetbulb,                                ! Humidity Indicating Type
  ,                                       ! Humidity Indicating Day Schedule Name
  DefaultMultipliers,                     ! Dry-Bulb Temperature Range Modifier Type
  ,                                       ! Dry-Bulb Temperature Range Modifier Schedule Name
  ASHRAETau,                              ! Solar Model Indicator
  ,                                       ! Beam Solar Day Schedule Name
  ,                                       ! Diffuse Solar Day Schedule Name
  0.389,                                  ! ASHRAE Taub {dimensionless}
  2.27;                                   ! ASHRAE Taud {dimensionless}

OS:ComponentData,
  {0d958c0a-4f5a-4dd0-8046-5f7d8bd46350}, ! Handle
  Component Data 1,                       ! Name
  {191ddce0-2405-4450-aaa1-3c163a29054a}, ! UUID
  {1eefc0bf-a2ae-49c3-be2f-e1a0dbccef9d}, ! Version UUID
  1366308159,                             ! Creation Timestamp
  1366308159,                             ! Version Timestamp
  {88164f78-d242-460b-a8b9-e30abfb73bf5}; ! Name of Object 1

