
OS:Version,
  {c270c5c6-4625-480d-9311-c1c75d60f2cf}, ! Handle
  0.9.3;                                  ! Version Identifier

OS:SizingPeriod:DesignDay,
  {59e7ca62-abcb-457b-93bb-ef021d132f54}, ! Handle
  Greer GreenvL Spartanbrg Ap Ann Htg Wind 99% Condns WS=>MCDB, ! Name
  8.1,                                    ! Maximum Dry-Bulb Temperature {C}
  0,                                      ! Daily Dry-Bulb Temperature Range {deltaC}
  8.1,                                    ! Humidity Indicating Conditions at Maximum Dry-Bulb {BasedOnField A3}
  97866,                                  ! Barometric Pressure {Pa}
  9,                                      ! Wind Speed {m/s}
  20,                                     ! Wind Direction {deg}
  0,                                      ! Sky Clearness
  0,                                      ! Rain Indicator
  0,                                      ! Snow Indicator
  21,                                     ! Day of Month
  1,                                      ! Month
  WinterDesignDay,                        ! Day Type
  0,                                      ! Daylight Saving Time Indicator
  Wetbulb,                                ! Humidity Indicating Type
  ,                                       ! Humidity Indicating Day Schedule Name
  DefaultMultipliers,                     ! Dry-Bulb Temperature Range Modifier Type
  ,                                       ! Dry-Bulb Temperature Range Modifier Schedule Name
  ASHRAEClearSky;                         ! Solar Model Indicator

OS:ComponentData,
  {668c4e79-c129-492b-a174-53a7a1b731ca}, ! Handle
  Component Data 1,                       ! Name
  {531fe990-2b70-41d3-a522-9e7ea6a18112}, ! UUID
  {24cef64f-bbdb-4a9a-a6b4-f965723adc3f}, ! Version UUID
  1366310367,                             ! Creation Timestamp
  1366310367,                             ! Version Timestamp
  {59e7ca62-abcb-457b-93bb-ef021d132f54}; ! Name of Object 1

