
OS:Version,
  {bbd3f0a7-19dd-4f63-a193-d4e1780d6ece}, ! Handle
  0.9.3;                                  ! Version Identifier

OS:SizingPeriod:DesignDay,
  {c0eb9274-0f98-4b2c-a8cd-54914e416249}, ! Handle
  Fargo Ann Clg 2% Condns DB=>MWB,        ! Name
  29.3,                                   ! Maximum Dry-Bulb Temperature {C}
  11.8,                                   ! Daily Dry-Bulb Temperature Range {deltaC}
  20.5,                                   ! Humidity Indicating Conditions at Maximum Dry-Bulb {BasedOnField A3}
  98076,                                  ! Barometric Pressure {Pa}
  6.5,                                    ! Wind Speed {m/s}
  170,                                    ! Wind Direction {deg}
  0,                                      ! Sky Clearness
  0,                                      ! Rain Indicator
  0,                                      ! Snow Indicator
  21,                                     ! Day of Month
  7,                                      ! Month
  SummerDesignDay,                        ! Day Type
  0,                                      ! Daylight Saving Time Indicator
  Wetbulb,                                ! Humidity Indicating Type
  ,                                       ! Humidity Indicating Day Schedule Name
  DefaultMultipliers,                     ! Dry-Bulb Temperature Range Modifier Type
  ,                                       ! Dry-Bulb Temperature Range Modifier Schedule Name
  ASHRAETau,                              ! Solar Model Indicator
  ,                                       ! Beam Solar Day Schedule Name
  ,                                       ! Diffuse Solar Day Schedule Name
  0.396,                                  ! ASHRAE Taub {dimensionless}
  2.253;                                  ! ASHRAE Taud {dimensionless}

OS:ComponentData,
  {08a50e66-03ae-4914-8de3-b2d1cfa79d1e}, ! Handle
  Component Data 1,                       ! Name
  {b3ab7760-9e60-4b42-ad34-939e7741cc31}, ! UUID
  {83cceca6-ab79-4a73-b598-8b6560b04b7c}, ! Version UUID
  1366309025,                             ! Creation Timestamp
  1366309025,                             ! Version Timestamp
  {c0eb9274-0f98-4b2c-a8cd-54914e416249}; ! Name of Object 1

