
OS:Version,
  {b29080a1-87f6-4dbb-96aa-9eb4a84feb70}, ! Handle
  0.9.3;                                  ! Version Identifier

OS:SizingPeriod:DesignDay,
  {2cc1f981-55cf-4ce0-a9ec-b1990172bad8}, ! Handle
  Fayetteville Rgnl G Ann Clg .4% Condns WB=>MDB, ! Name
  32.2,                                   ! Maximum Dry-Bulb Temperature {C}
  10.4,                                   ! Daily Dry-Bulb Temperature Range {deltaC}
  26.3,                                   ! Humidity Indicating Conditions at Maximum Dry-Bulb {BasedOnField A3}
  100618,                                 ! Barometric Pressure {Pa}
  3.7,                                    ! Wind Speed {m/s}
  240,                                    ! Wind Direction {deg}
  0,                                      ! Sky Clearness
  0,                                      ! Rain Indicator
  0,                                      ! Snow Indicator
  21,                                     ! Day of Month
  7,                                      ! Month
  SummerDesignDay,                        ! Day Type
  0,                                      ! Daylight Saving Time Indicator
  Wetbulb,                                ! Humidity Indicating Type
  ,                                       ! Humidity Indicating Day Schedule Name
  DefaultMultipliers,                     ! Dry-Bulb Temperature Range Modifier Type
  ,                                       ! Dry-Bulb Temperature Range Modifier Schedule Name
  ASHRAETau,                              ! Solar Model Indicator
  ,                                       ! Beam Solar Day Schedule Name
  ,                                       ! Diffuse Solar Day Schedule Name
  0.584,                                  ! ASHRAE Taub {dimensionless}
  1.713;                                  ! ASHRAE Taud {dimensionless}

OS:ComponentData,
  {ffd6826b-480c-4b61-b41c-c16e6db68c55}, ! Handle
  Component Data 1,                       ! Name
  {53852517-6984-40be-9155-ae2c073b01a0}, ! UUID
  {5ebabf76-b013-4bf0-9afd-be02cb601a55}, ! Version UUID
  1366308915,                             ! Creation Timestamp
  1366308915,                             ! Version Timestamp
  {2cc1f981-55cf-4ce0-a9ec-b1990172bad8}; ! Name of Object 1

