
OS:Version,
  {3e2ed333-1d3f-4f83-a0a1-2d0779abc99b}, ! Handle
  0.9.3;                                  ! Version Identifier

OS:SizingPeriod:DesignDay,
  {ed18842f-ff66-4b7b-a19a-3a757663f535}, ! Handle
  Islip Long Isl Macarthur Ap Ann Clg .4% Condns Enth=>MDB, ! Name
  28.8,                                   ! Maximum Dry-Bulb Temperature {C}
  8.4,                                    ! Daily Dry-Bulb Temperature Range {deltaC}
  75300,                                  ! Humidity Indicating Conditions at Maximum Dry-Bulb {BasedOnField A3}
  101013,                                 ! Barometric Pressure {Pa}
  4.9,                                    ! Wind Speed {m/s}
  220,                                    ! Wind Direction {deg}
  0,                                      ! Sky Clearness
  0,                                      ! Rain Indicator
  0,                                      ! Snow Indicator
  21,                                     ! Day of Month
  7,                                      ! Month
  SummerDesignDay,                        ! Day Type
  0,                                      ! Daylight Saving Time Indicator
  Enthalpy,                               ! Humidity Indicating Type
  ,                                       ! Humidity Indicating Day Schedule Name
  DefaultMultipliers,                     ! Dry-Bulb Temperature Range Modifier Type
  ,                                       ! Dry-Bulb Temperature Range Modifier Schedule Name
  ASHRAETau,                              ! Solar Model Indicator
  ,                                       ! Beam Solar Day Schedule Name
  ,                                       ! Diffuse Solar Day Schedule Name
  0.533,                                  ! ASHRAE Taub {dimensionless}
  1.82;                                   ! ASHRAE Taud {dimensionless}

OS:ComponentData,
  {7a59597e-5589-4fed-9a22-1afa8bd7874a}, ! Handle
  Component Data 1,                       ! Name
  {11913ab5-0602-4e37-a538-8b9682941706}, ! UUID
  {d6dbcf4f-2fae-40ca-9132-98d3d69528a0}, ! Version UUID
  1366309632,                             ! Creation Timestamp
  1366309632,                             ! Version Timestamp
  {ed18842f-ff66-4b7b-a19a-3a757663f535}; ! Name of Object 1

