
OS:Version,
  {7b29615f-be0e-4f00-aad3-5c934f47577d}, ! Handle
  0.9.3;                                  ! Version Identifier

OS:SizingPeriod:DesignDay,
  {68bac9f4-0e66-46bc-8d1f-cccdbe4cb4cb}, ! Handle
  CLEVELAND Ann Clg .4% Condns DP=>MDB,   ! Name
  27.5,                                   ! Maximum Dry-Bulb Temperature {C}
  9.8,                                    ! Daily Dry-Bulb Temperature Range {deltaC}
  22.9,                                   ! Humidity Indicating Conditions at Maximum Dry-Bulb {BasedOnField A3}
  98416,                                  ! Barometric Pressure {Pa}
  5,                                      ! Wind Speed {m/s}
  230,                                    ! Wind Direction {deg}
  0,                                      ! Sky Clearness
  0,                                      ! Rain Indicator
  0,                                      ! Snow Indicator
  21,                                     ! Day of Month
  7,                                      ! Month
  SummerDesignDay,                        ! Day Type
  0,                                      ! Daylight Saving Time Indicator
  Dewpoint,                               ! Humidity Indicating Type
  ,                                       ! Humidity Indicating Day Schedule Name
  DefaultMultipliers,                     ! Dry-Bulb Temperature Range Modifier Type
  ,                                       ! Dry-Bulb Temperature Range Modifier Schedule Name
  ASHRAETau,                              ! Solar Model Indicator
  ,                                       ! Beam Solar Day Schedule Name
  ,                                       ! Diffuse Solar Day Schedule Name
  0.471,                                  ! ASHRAE Taub {dimensionless}
  1.988;                                  ! ASHRAE Taud {dimensionless}

