
OS:Version,
  {a69b4587-0998-4ec4-a9d1-74ef7fcc71a3}, ! Handle
  0.9.3;                                  ! Version Identifier

OS:SizingPeriod:DesignDay,
  {41b05591-a10b-4e2d-aad1-5585e21224ba}, ! Handle
  CLEVELAND Ann Clg .4% Condns DP=>MDB,   ! Name
  27.5,                                   ! Maximum Dry-Bulb Temperature {C}
  9.8,                                    ! Daily Dry-Bulb Temperature Range {deltaC}
  22.9,                                   ! Humidity Indicating Conditions at Maximum Dry-Bulb {BasedOnField A3}
  98416,                                  ! Barometric Pressure {Pa}
  5,                                      ! Wind Speed {m/s}
  230,                                    ! Wind Direction {deg}
  0,                                      ! Sky Clearness
  0,                                      ! Rain Indicator
  0,                                      ! Snow Indicator
  21,                                     ! Day of Month
  7,                                      ! Month
  SummerDesignDay,                        ! Day Type
  0,                                      ! Daylight Saving Time Indicator
  Dewpoint,                               ! Humidity Indicating Type
  ,                                       ! Humidity Indicating Day Schedule Name
  DefaultMultipliers,                     ! Dry-Bulb Temperature Range Modifier Type
  ,                                       ! Dry-Bulb Temperature Range Modifier Schedule Name
  ASHRAETau,                              ! Solar Model Indicator
  ,                                       ! Beam Solar Day Schedule Name
  ,                                       ! Diffuse Solar Day Schedule Name
  0.471,                                  ! ASHRAE Taub {dimensionless}
  1.988;                                  ! ASHRAE Taud {dimensionless}

OS:ComponentData,
  {e13108cc-1032-418b-ace8-0074c224091f}, ! Handle
  Component Data 1,                       ! Name
  {175fde5a-a1be-4da6-b95d-5712517a1de2}, ! UUID
  {c8c8b36d-a4ac-4ecb-b835-3695889d642c}, ! Version UUID
  1366309786,                             ! Creation Timestamp
  1366309786,                             ! Version Timestamp
  {41b05591-a10b-4e2d-aad1-5585e21224ba}; ! Name of Object 1

