
OS:Version,
  {1b14201a-19dd-4992-b126-fcf8f8f530a1}, ! Handle
  0.9.3;                                  ! Version Identifier

OS:SizingPeriod:DesignDay,
  {a265d1e4-0e34-4144-a2c0-c9dfee0f7099}, ! Handle
  DAYTON Ann Clg 2% Condns Enth=>MDB,     ! Name
  28.5,                                   ! Maximum Dry-Bulb Temperature {C}
  11,                                     ! Daily Dry-Bulb Temperature Range {deltaC}
  71600,                                  ! Humidity Indicating Conditions at Maximum Dry-Bulb {BasedOnField A3}
  97703,                                  ! Barometric Pressure {Pa}
  3.9,                                    ! Wind Speed {m/s}
  240,                                    ! Wind Direction {deg}
  0,                                      ! Sky Clearness
  0,                                      ! Rain Indicator
  0,                                      ! Snow Indicator
  21,                                     ! Day of Month
  7,                                      ! Month
  SummerDesignDay,                        ! Day Type
  0,                                      ! Daylight Saving Time Indicator
  Enthalpy,                               ! Humidity Indicating Type
  ,                                       ! Humidity Indicating Day Schedule Name
  DefaultMultipliers,                     ! Dry-Bulb Temperature Range Modifier Type
  ,                                       ! Dry-Bulb Temperature Range Modifier Schedule Name
  ASHRAETau,                              ! Solar Model Indicator
  ,                                       ! Beam Solar Day Schedule Name
  ,                                       ! Diffuse Solar Day Schedule Name
  0.484,                                  ! ASHRAE Taub {dimensionless}
  1.94;                                   ! ASHRAE Taud {dimensionless}

OS:ComponentData,
  {1be963ae-8c3a-45cc-ab2f-5d5f94e07770}, ! Handle
  Component Data 1,                       ! Name
  {8b6c6803-8d35-4963-bbc8-c84edc9b73f7}, ! UUID
  {e293b293-2a2c-4bb7-bb44-19fa45e3414b}, ! Version UUID
  1366309818,                             ! Creation Timestamp
  1366309818,                             ! Version Timestamp
  {a265d1e4-0e34-4144-a2c0-c9dfee0f7099}; ! Name of Object 1

