
OS:Version,
  {357b7436-1481-4cd3-a235-aab9a85354cc}, ! Handle
  0.9.3;                                  ! Version Identifier

OS:SizingPeriod:DesignDay,
  {7ac9c904-ecab-4975-8a09-1c5e9a83976a}, ! Handle
  Fosston Awos Ann Clg 1% Condns WB=>MDB, ! Name
  26.7,                                   ! Maximum Dry-Bulb Temperature {C}
  10.6,                                   ! Daily Dry-Bulb Temperature Range {deltaC}
  21.9,                                   ! Humidity Indicating Conditions at Maximum Dry-Bulb {BasedOnField A3}
  96750,                                  ! Barometric Pressure {Pa}
  5.4,                                    ! Wind Speed {m/s}
  160,                                    ! Wind Direction {deg}
  0,                                      ! Sky Clearness
  0,                                      ! Rain Indicator
  0,                                      ! Snow Indicator
  21,                                     ! Day of Month
  7,                                      ! Month
  SummerDesignDay,                        ! Day Type
  0,                                      ! Daylight Saving Time Indicator
  Wetbulb,                                ! Humidity Indicating Type
  ,                                       ! Humidity Indicating Day Schedule Name
  DefaultMultipliers,                     ! Dry-Bulb Temperature Range Modifier Type
  ,                                       ! Dry-Bulb Temperature Range Modifier Schedule Name
  ASHRAETau,                              ! Solar Model Indicator
  ,                                       ! Beam Solar Day Schedule Name
  ,                                       ! Diffuse Solar Day Schedule Name
  0.389,                                  ! ASHRAE Taub {dimensionless}
  2.278;                                  ! ASHRAE Taud {dimensionless}

OS:ComponentData,
  {85c65b30-b297-43fb-ab50-acf1a24bed09}, ! Handle
  Component Data 1,                       ! Name
  {b5b5b4a7-0f51-478f-bf27-7c764001487f}, ! UUID
  {7956afd0-1ede-45c7-b693-993aabe18f17}, ! Version UUID
  1366308238,                             ! Creation Timestamp
  1366308238,                             ! Version Timestamp
  {7ac9c904-ecab-4975-8a09-1c5e9a83976a}; ! Name of Object 1

