
OS:Version,
  {1b547a3f-8c0d-4641-9a83-c19827101b6e}, ! Handle
  0.9.3;                                  ! Version Identifier

OS:SizingPeriod:DesignDay,
  {64873dad-511b-4ab6-8f38-241a92e0d380}, ! Handle
  Dyersburg Municipal Ap Ann Clg 1% Condns Enth=>MDB, ! Name
  32.2,                                   ! Maximum Dry-Bulb Temperature {C}
  9.6,                                    ! Daily Dry-Bulb Temperature Range {deltaC}
  80200,                                  ! Humidity Indicating Conditions at Maximum Dry-Bulb {BasedOnField A3}
  100094,                                 ! Barometric Pressure {Pa}
  2.9,                                    ! Wind Speed {m/s}
  220,                                    ! Wind Direction {deg}
  0,                                      ! Sky Clearness
  0,                                      ! Rain Indicator
  0,                                      ! Snow Indicator
  21,                                     ! Day of Month
  7,                                      ! Month
  SummerDesignDay,                        ! Day Type
  0,                                      ! Daylight Saving Time Indicator
  Enthalpy,                               ! Humidity Indicating Type
  ,                                       ! Humidity Indicating Day Schedule Name
  DefaultMultipliers,                     ! Dry-Bulb Temperature Range Modifier Type
  ,                                       ! Dry-Bulb Temperature Range Modifier Schedule Name
  ASHRAETau,                              ! Solar Model Indicator
  ,                                       ! Beam Solar Day Schedule Name
  ,                                       ! Diffuse Solar Day Schedule Name
  0.496,                                  ! ASHRAE Taub {dimensionless}
  1.94;                                   ! ASHRAE Taud {dimensionless}

OS:ComponentData,
  {ab660c92-1a2c-4bb1-97de-384991590349}, ! Handle
  Component Data 1,                       ! Name
  {a8c7633b-7b98-4258-bd94-6be6ce2a436c}, ! UUID
  {487b070f-011c-48ee-8b08-bf992a7297a7}, ! Version UUID
  1366310502,                             ! Creation Timestamp
  1366310502,                             ! Version Timestamp
  {64873dad-511b-4ab6-8f38-241a92e0d380}; ! Name of Object 1

