
OS:Version,
  {42944185-be8a-4c8d-9be0-49734ab86af4}, ! Handle
  0.9.3;                                  ! Version Identifier

OS:SizingPeriod:DesignDay,
  {feec1396-224e-4429-8699-7e2cab60a437}, ! Handle
  Bangor International Ap Ann Clg 1% Condns Enth=>MDB, ! Name
  27.2,                                   ! Maximum Dry-Bulb Temperature {C}
  11.3,                                   ! Daily Dry-Bulb Temperature Range {deltaC}
  63900,                                  ! Humidity Indicating Conditions at Maximum Dry-Bulb {BasedOnField A3}
  100654,                                 ! Barometric Pressure {Pa}
  4.5,                                    ! Wind Speed {m/s}
  280,                                    ! Wind Direction {deg}
  0,                                      ! Sky Clearness
  0,                                      ! Rain Indicator
  0,                                      ! Snow Indicator
  21,                                     ! Day of Month
  7,                                      ! Month
  SummerDesignDay,                        ! Day Type
  0,                                      ! Daylight Saving Time Indicator
  Enthalpy,                               ! Humidity Indicating Type
  ,                                       ! Humidity Indicating Day Schedule Name
  DefaultMultipliers,                     ! Dry-Bulb Temperature Range Modifier Type
  ,                                       ! Dry-Bulb Temperature Range Modifier Schedule Name
  ASHRAETau,                              ! Solar Model Indicator
  ,                                       ! Beam Solar Day Schedule Name
  ,                                       ! Diffuse Solar Day Schedule Name
  0.458,                                  ! ASHRAE Taub {dimensionless}
  2.019;                                  ! ASHRAE Taud {dimensionless}

OS:ComponentData,
  {d0ce2fb4-8a62-4954-adb6-f6aeb0c7031d}, ! Handle
  Component Data 1,                       ! Name
  {98b885be-cf1f-479d-9971-73cb66799ff7}, ! UUID
  {6f1f19f2-93cf-4b15-bcb2-ad26489cf49f}, ! Version UUID
  1366307876,                             ! Creation Timestamp
  1366307876,                             ! Version Timestamp
  {feec1396-224e-4429-8699-7e2cab60a437}; ! Name of Object 1

