
OS:Version,
  {3375b8ab-84c3-4253-bd47-e8edf6e4862b}, ! Handle
  0.9.3;                                  ! Version Identifier

OS:SizingPeriod:DesignDay,
  {d4be9160-2951-4cdd-907b-3faf963fdb34}, ! Handle
  Houston Ellington Afb  Clear Ann Hum_n 99.6% Condns DP=>MCDB, ! Name
  4.9,                                    ! Maximum Dry-Bulb Temperature {C}
  0,                                      ! Daily Dry-Bulb Temperature Range {deltaC}
  -8.2,                                   ! Humidity Indicating Conditions at Maximum Dry-Bulb {BasedOnField A3}
  101253,                                 ! Barometric Pressure {Pa}
  4,                                      ! Wind Speed {m/s}
  350,                                    ! Wind Direction {deg}
  0,                                      ! Sky Clearness
  0,                                      ! Rain Indicator
  0,                                      ! Snow Indicator
  21,                                     ! Day of Month
  1,                                      ! Month
  WinterDesignDay,                        ! Day Type
  0,                                      ! Daylight Saving Time Indicator
  Dewpoint,                               ! Humidity Indicating Type
  ,                                       ! Humidity Indicating Day Schedule Name
  DefaultMultipliers,                     ! Dry-Bulb Temperature Range Modifier Type
  ,                                       ! Dry-Bulb Temperature Range Modifier Schedule Name
  ASHRAEClearSky;                         ! Solar Model Indicator

OS:ComponentData,
  {dfe2e829-7074-492f-8403-0f8272676ee9}, ! Handle
  Component Data 1,                       ! Name
  {04356a3c-bf2f-4e4a-b2d0-df47c159246b}, ! UUID
  {07bfcf9a-b738-4efd-837d-e8fac71e0e06}, ! Version UUID
  1366310751,                             ! Creation Timestamp
  1366310751,                             ! Version Timestamp
  {d4be9160-2951-4cdd-907b-3faf963fdb34}; ! Name of Object 1

