
OS:Version,
  {148d414c-b051-48f7-b7ea-407c90a59d36}, ! Handle
  0.9.3;                                  ! Version Identifier

OS:SizingPeriod:DesignDay,
  {a43a33ee-64b0-40c9-a8f9-452a4c229f8c}, ! Handle
  Fresno Ann Clg 1% Condns WB=>MDB,       ! Name
  35.5,                                   ! Maximum Dry-Bulb Temperature {C}
  16.4,                                   ! Daily Dry-Bulb Temperature Range {deltaC}
  22.3,                                   ! Humidity Indicating Conditions at Maximum Dry-Bulb {BasedOnField A3}
  100129,                                 ! Barometric Pressure {Pa}
  3.7,                                    ! Wind Speed {m/s}
  300,                                    ! Wind Direction {deg}
  0,                                      ! Sky Clearness
  0,                                      ! Rain Indicator
  0,                                      ! Snow Indicator
  21,                                     ! Day of Month
  7,                                      ! Month
  SummerDesignDay,                        ! Day Type
  0,                                      ! Daylight Saving Time Indicator
  Wetbulb,                                ! Humidity Indicating Type
  ,                                       ! Humidity Indicating Day Schedule Name
  DefaultMultipliers,                     ! Dry-Bulb Temperature Range Modifier Type
  ,                                       ! Dry-Bulb Temperature Range Modifier Schedule Name
  ASHRAETau,                              ! Solar Model Indicator
  ,                                       ! Beam Solar Day Schedule Name
  ,                                       ! Diffuse Solar Day Schedule Name
  0.428,                                  ! ASHRAE Taub {dimensionless}
  2.152;                                  ! ASHRAE Taud {dimensionless}

OS:ComponentData,
  {b2dde14c-1342-452d-8e61-d581494d2e37}, ! Handle
  Component Data 1,                       ! Name
  {8a121e20-c450-4906-b035-748db120c9d8}, ! UUID
  {30d29fcb-2ae9-4a41-ad4a-07838e207244}, ! Version UUID
  1366306437,                             ! Creation Timestamp
  1366306437,                             ! Version Timestamp
  {a43a33ee-64b0-40c9-a8f9-452a4c229f8c}; ! Name of Object 1

