
OS:Version,
  {920adde7-8a79-4922-997b-8658202e32c2}, ! Handle
  0.9.3;                                  ! Version Identifier

OS:SizingPeriod:DesignDay,
  {dc3166f0-6320-4fdd-bbcc-a20fb5006208}, ! Handle
  Kona Intl At Keahol Ann Hum_n 99% Condns DP=>MCDB, ! Name
  22.4,                                   ! Maximum Dry-Bulb Temperature {C}
  0,                                      ! Daily Dry-Bulb Temperature Range {deltaC}
  12.4,                                   ! Humidity Indicating Conditions at Maximum Dry-Bulb {BasedOnField A3}
  101145,                                 ! Barometric Pressure {Pa}
  2.9,                                    ! Wind Speed {m/s}
  80,                                     ! Wind Direction {deg}
  0,                                      ! Sky Clearness
  0,                                      ! Rain Indicator
  0,                                      ! Snow Indicator
  21,                                     ! Day of Month
  2,                                      ! Month
  WinterDesignDay,                        ! Day Type
  0,                                      ! Daylight Saving Time Indicator
  Dewpoint,                               ! Humidity Indicating Type
  ,                                       ! Humidity Indicating Day Schedule Name
  DefaultMultipliers,                     ! Dry-Bulb Temperature Range Modifier Type
  ,                                       ! Dry-Bulb Temperature Range Modifier Schedule Name
  ASHRAEClearSky;                         ! Solar Model Indicator

OS:ComponentData,
  {b6b7145d-901e-445d-a97d-75284c42ea11}, ! Handle
  Component Data 1,                       ! Name
  {31e0beef-d00e-4733-b9fc-24b481bf2f7d}, ! UUID
  {41cea240-a7c0-4d14-9031-a01481af6d31}, ! Version UUID
  1366307108,                             ! Creation Timestamp
  1366307108,                             ! Version Timestamp
  {dc3166f0-6320-4fdd-bbcc-a20fb5006208}; ! Name of Object 1

