
OS:Version,
  {a0052451-7bf3-49e2-b244-a83cd7ff1faa}, ! Handle
  0.9.3;                                  ! Version Identifier

OS:SizingPeriod:DesignDay,
  {927256a9-87a6-4a2a-a235-67d0bbcce38c}, ! Handle
  FORT_WORTH Ann Clg 2% Condns WB=>MDB,   ! Name
  32.3,                                   ! Maximum Dry-Bulb Temperature {C}
  11.1,                                   ! Daily Dry-Bulb Temperature Range {deltaC}
  24.9,                                   ! Humidity Indicating Conditions at Maximum Dry-Bulb {BasedOnField A3}
  99370,                                  ! Barometric Pressure {Pa}
  4.6,                                    ! Wind Speed {m/s}
  160,                                    ! Wind Direction {deg}
  0,                                      ! Sky Clearness
  0,                                      ! Rain Indicator
  0,                                      ! Snow Indicator
  21,                                     ! Day of Month
  8,                                      ! Month
  SummerDesignDay,                        ! Day Type
  0,                                      ! Daylight Saving Time Indicator
  Wetbulb,                                ! Humidity Indicating Type
  ,                                       ! Humidity Indicating Day Schedule Name
  DefaultMultipliers,                     ! Dry-Bulb Temperature Range Modifier Type
  ,                                       ! Dry-Bulb Temperature Range Modifier Schedule Name
  ASHRAETau,                              ! Solar Model Indicator
  ,                                       ! Beam Solar Day Schedule Name
  ,                                       ! Diffuse Solar Day Schedule Name
  0.466,                                  ! ASHRAE Taub {dimensionless}
  2.06;                                   ! ASHRAE Taud {dimensionless}

OS:ComponentData,
  {dbb6bde5-8212-4f57-a881-46020d5cf19a}, ! Handle
  Component Data 1,                       ! Name
  {f2256ec5-7e72-4be4-8915-9e8968e0b1aa}, ! UUID
  {778cbdc9-b040-4c6a-9620-b31cea08dd2a}, ! Version UUID
  1366310710,                             ! Creation Timestamp
  1366310710,                             ! Version Timestamp
  {927256a9-87a6-4a2a-a235-67d0bbcce38c}; ! Name of Object 1

