
OS:Version,
  {55c77985-d507-4a38-8f68-7c60d1d4e7e1}, ! Handle
  0.9.3;                                  ! Version Identifier

OS:SizingPeriod:DesignDay,
  {d7d63246-2ca8-41b1-9ac1-fc70d05ce5b5}, ! Handle
  Asheville Regional Arpt Ann Clg .4% Condns DP=>MDB, ! Name
  25.3,                                   ! Maximum Dry-Bulb Temperature {C}
  10.7,                                   ! Daily Dry-Bulb Temperature Range {deltaC}
  22,                                     ! Humidity Indicating Conditions at Maximum Dry-Bulb {BasedOnField A3}
  93734,                                  ! Barometric Pressure {Pa}
  3.8,                                    ! Wind Speed {m/s}
  340,                                    ! Wind Direction {deg}
  0,                                      ! Sky Clearness
  0,                                      ! Rain Indicator
  0,                                      ! Snow Indicator
  21,                                     ! Day of Month
  7,                                      ! Month
  SummerDesignDay,                        ! Day Type
  0,                                      ! Daylight Saving Time Indicator
  Dewpoint,                               ! Humidity Indicating Type
  ,                                       ! Humidity Indicating Day Schedule Name
  DefaultMultipliers,                     ! Dry-Bulb Temperature Range Modifier Type
  ,                                       ! Dry-Bulb Temperature Range Modifier Schedule Name
  ASHRAETau,                              ! Solar Model Indicator
  ,                                       ! Beam Solar Day Schedule Name
  ,                                       ! Diffuse Solar Day Schedule Name
  0.517,                                  ! ASHRAE Taub {dimensionless}
  1.849;                                  ! ASHRAE Taud {dimensionless}

OS:ComponentData,
  {0ac2e259-66e7-4a79-b38c-55f4b7d2c4f7}, ! Handle
  Component Data 1,                       ! Name
  {ce2502cf-d8d8-47d1-af04-6663a24177ea}, ! UUID
  {3de28d7a-0b46-460c-9113-1b77e86cc965}, ! Version UUID
  1366308869,                             ! Creation Timestamp
  1366308869,                             ! Version Timestamp
  {d7d63246-2ca8-41b1-9ac1-fc70d05ce5b5}; ! Name of Object 1

