
OS:Version,
  {597b9c50-27d8-4f92-9ef9-dc48bf95e5d2}, ! Handle
  0.9.3;                                  ! Version Identifier

OS:SizingPeriod:DesignDay,
  {c6380dc1-d86d-46d3-9c10-e3225c13fa56}, ! Handle
  Charleston Intl Arpt Ann Htg Wind 99.6% Condns WS=>MCDB, ! Name
  14.4,                                   ! Maximum Dry-Bulb Temperature {C}
  0,                                      ! Daily Dry-Bulb Temperature Range {deltaC}
  14.4,                                   ! Humidity Indicating Conditions at Maximum Dry-Bulb {BasedOnField A3}
  101181,                                 ! Barometric Pressure {Pa}
  11.1,                                   ! Wind Speed {m/s}
  20,                                     ! Wind Direction {deg}
  0,                                      ! Sky Clearness
  0,                                      ! Rain Indicator
  0,                                      ! Snow Indicator
  21,                                     ! Day of Month
  1,                                      ! Month
  WinterDesignDay,                        ! Day Type
  0,                                      ! Daylight Saving Time Indicator
  Wetbulb,                                ! Humidity Indicating Type
  ,                                       ! Humidity Indicating Day Schedule Name
  DefaultMultipliers,                     ! Dry-Bulb Temperature Range Modifier Type
  ,                                       ! Dry-Bulb Temperature Range Modifier Schedule Name
  ASHRAEClearSky;                         ! Solar Model Indicator

OS:ComponentData,
  {72528892-3628-4df9-a898-79c45cfd23f6}, ! Handle
  Component Data 1,                       ! Name
  {e19917fb-030b-4f88-8e66-9acb4986aa31}, ! UUID
  {2fde4438-af14-4ba8-acee-7ccacf8ed4b2}, ! Version UUID
  1366310330,                             ! Creation Timestamp
  1366310330,                             ! Version Timestamp
  {c6380dc1-d86d-46d3-9c10-e3225c13fa56}; ! Name of Object 1

