
OS:Version,
  {5243594e-5bc8-4652-8a28-9d771f845227}, ! Handle
  0.9.3;                                  ! Version Identifier

OS:SizingPeriod:DesignDay,
  {30b4ba66-863e-4080-8e9a-a041582fa93f}, ! Handle
  Charlotte Douglas Intl Arpt Ann Clg 1% Condns DB=>MWB, ! Name
  33.1,                                   ! Maximum Dry-Bulb Temperature {C}
  10.1,                                   ! Daily Dry-Bulb Temperature Range {deltaC}
  23.4,                                   ! Humidity Indicating Conditions at Maximum Dry-Bulb {BasedOnField A3}
  98686,                                  ! Barometric Pressure {Pa}
  3.3,                                    ! Wind Speed {m/s}
  240,                                    ! Wind Direction {deg}
  0,                                      ! Sky Clearness
  0,                                      ! Rain Indicator
  0,                                      ! Snow Indicator
  21,                                     ! Day of Month
  7,                                      ! Month
  SummerDesignDay,                        ! Day Type
  0,                                      ! Daylight Saving Time Indicator
  Wetbulb,                                ! Humidity Indicating Type
  ,                                       ! Humidity Indicating Day Schedule Name
  DefaultMultipliers,                     ! Dry-Bulb Temperature Range Modifier Type
  ,                                       ! Dry-Bulb Temperature Range Modifier Schedule Name
  ASHRAETau,                              ! Solar Model Indicator
  ,                                       ! Beam Solar Day Schedule Name
  ,                                       ! Diffuse Solar Day Schedule Name
  0.557,                                  ! ASHRAE Taub {dimensionless}
  1.762;                                  ! ASHRAE Taud {dimensionless}

OS:ComponentData,
  {82f51981-d1a7-4f40-8de1-9df89788c7e5}, ! Handle
  Component Data 1,                       ! Name
  {b2eda6a3-e7fb-48c5-aeff-ae59be019fb1}, ! UUID
  {78253fa3-f0da-4551-a45b-cf4fa2fb7abf}, ! Version UUID
  1366308889,                             ! Creation Timestamp
  1366308889,                             ! Version Timestamp
  {30b4ba66-863e-4080-8e9a-a041582fa93f}; ! Name of Object 1

