
OS:Version,
  {e0ee6abb-0f5c-422c-a55a-a75aecb108ba}, ! Handle
  0.9.3;                                  ! Version Identifier

OS:SizingPeriod:DesignDay,
  {36b299b7-b693-4d0a-a761-bbb061292d53}, ! Handle
  GREENSBORO Ann Clg .4% Condns DP=>MDB,  ! Name
  27.3,                                   ! Maximum Dry-Bulb Temperature {C}
  9.9,                                    ! Daily Dry-Bulb Temperature Range {deltaC}
  23.2,                                   ! Humidity Indicating Conditions at Maximum Dry-Bulb {BasedOnField A3}
  98123,                                  ! Barometric Pressure {Pa}
  3.4,                                    ! Wind Speed {m/s}
  230,                                    ! Wind Direction {deg}
  0,                                      ! Sky Clearness
  0,                                      ! Rain Indicator
  0,                                      ! Snow Indicator
  21,                                     ! Day of Month
  7,                                      ! Month
  SummerDesignDay,                        ! Day Type
  0,                                      ! Daylight Saving Time Indicator
  Dewpoint,                               ! Humidity Indicating Type
  ,                                       ! Humidity Indicating Day Schedule Name
  DefaultMultipliers,                     ! Dry-Bulb Temperature Range Modifier Type
  ,                                       ! Dry-Bulb Temperature Range Modifier Schedule Name
  ASHRAETau,                              ! Solar Model Indicator
  ,                                       ! Beam Solar Day Schedule Name
  ,                                       ! Diffuse Solar Day Schedule Name
  0.557,                                  ! ASHRAE Taub {dimensionless}
  1.757;                                  ! ASHRAE Taud {dimensionless}

OS:ComponentData,
  {af5c467e-a3d4-4f1a-98d8-a15a4dfdb7df}, ! Handle
  Component Data 1,                       ! Name
  {d07d74fa-a8f4-4774-9c1b-b36716e8e6e8}, ! UUID
  {a1b857ac-c1b1-4239-ae49-cb321d7416a5}, ! Version UUID
  1366308937,                             ! Creation Timestamp
  1366308937,                             ! Version Timestamp
  {36b299b7-b693-4d0a-a761-bbb061292d53}; ! Name of Object 1

