
OS:Version,
  {766a6cb1-2f6e-4d29-be97-7414c2457033}, ! Handle
  0.9.3;                                  ! Version Identifier

OS:SizingPeriod:DesignDay,
  {53a941bf-edee-424b-9a6e-926d2e7b8d29}, ! Handle
  Fosston Awos Ann Clg 2% Condns Enth=>MDB, ! Name
  25.7,                                   ! Maximum Dry-Bulb Temperature {C}
  10.6,                                   ! Daily Dry-Bulb Temperature Range {deltaC}
  62000,                                  ! Humidity Indicating Conditions at Maximum Dry-Bulb {BasedOnField A3}
  96750,                                  ! Barometric Pressure {Pa}
  5.4,                                    ! Wind Speed {m/s}
  160,                                    ! Wind Direction {deg}
  0,                                      ! Sky Clearness
  0,                                      ! Rain Indicator
  0,                                      ! Snow Indicator
  21,                                     ! Day of Month
  7,                                      ! Month
  SummerDesignDay,                        ! Day Type
  0,                                      ! Daylight Saving Time Indicator
  Enthalpy,                               ! Humidity Indicating Type
  ,                                       ! Humidity Indicating Day Schedule Name
  DefaultMultipliers,                     ! Dry-Bulb Temperature Range Modifier Type
  ,                                       ! Dry-Bulb Temperature Range Modifier Schedule Name
  ASHRAETau,                              ! Solar Model Indicator
  ,                                       ! Beam Solar Day Schedule Name
  ,                                       ! Diffuse Solar Day Schedule Name
  0.389,                                  ! ASHRAE Taub {dimensionless}
  2.278;                                  ! ASHRAE Taud {dimensionless}

OS:ComponentData,
  {e65f7993-32e5-4236-b25f-0ab04ea74789}, ! Handle
  Component Data 1,                       ! Name
  {7bfb748e-5297-406f-b355-1f6e7163e4f4}, ! UUID
  {d3b39033-e1bd-4f1e-af76-bba36acd8961}, ! Version UUID
  1366308239,                             ! Creation Timestamp
  1366308239,                             ! Version Timestamp
  {53a941bf-edee-424b-9a6e-926d2e7b8d29}; ! Name of Object 1

