
OS:Version,
  {b5d589f0-3f25-4c9c-9a18-5c6bd516b8f8}, ! Handle
  0.9.3;                                  ! Version Identifier

OS:SizingPeriod:DesignDay,
  {137bc705-429f-4417-afaa-b67689b66bbb}, ! Handle
  LITTLE_ROCK Ann Clg 1% Condns WB=>MDB,  ! Name
  32.4,                                   ! Maximum Dry-Bulb Temperature {C}
  11.1,                                   ! Daily Dry-Bulb Temperature Range {deltaC}
  26.7,                                   ! Humidity Indicating Conditions at Maximum Dry-Bulb {BasedOnField A3}
  100356,                                 ! Barometric Pressure {Pa}
  3.5,                                    ! Wind Speed {m/s}
  190,                                    ! Wind Direction {deg}
  0,                                      ! Sky Clearness
  0,                                      ! Rain Indicator
  0,                                      ! Snow Indicator
  21,                                     ! Day of Month
  7,                                      ! Month
  SummerDesignDay,                        ! Day Type
  0,                                      ! Daylight Saving Time Indicator
  Wetbulb,                                ! Humidity Indicating Type
  ,                                       ! Humidity Indicating Day Schedule Name
  DefaultMultipliers,                     ! Dry-Bulb Temperature Range Modifier Type
  ,                                       ! Dry-Bulb Temperature Range Modifier Schedule Name
  ASHRAETau,                              ! Solar Model Indicator
  ,                                       ! Beam Solar Day Schedule Name
  ,                                       ! Diffuse Solar Day Schedule Name
  0.512,                                  ! ASHRAE Taub {dimensionless}
  1.909;                                  ! ASHRAE Taud {dimensionless}

OS:ComponentData,
  {078a23a3-9904-48f4-884b-3edb93af381b}, ! Handle
  Component Data 1,                       ! Name
  {f9123c09-4172-4f60-97e0-5d983eadbad0}, ! UUID
  {a2e101af-ac4d-46bb-b04e-8b61e05ea15c}, ! Version UUID
  1366306232,                             ! Creation Timestamp
  1366306232,                             ! Version Timestamp
  {137bc705-429f-4417-afaa-b67689b66bbb}; ! Name of Object 1

