
OS:Version,
  {f34c3cb8-864d-4d82-82b6-e05c94204945}, ! Handle
  0.9.3;                                  ! Version Identifier

OS:SizingPeriod:DesignDay,
  {5e89d29a-61ce-4a9a-93e9-36f14b79d979}, ! Handle
  Anchorage Intl Ap Ann Clg 1% Condns WB=>MDB, ! Name
  19,                                     ! Maximum Dry-Bulb Temperature {C}
  6.6,                                    ! Daily Dry-Bulb Temperature Range {deltaC}
  14.9,                                   ! Humidity Indicating Conditions at Maximum Dry-Bulb {BasedOnField A3}
  100905,                                 ! Barometric Pressure {Pa}
  3.6,                                    ! Wind Speed {m/s}
  300,                                    ! Wind Direction {deg}
  0,                                      ! Sky Clearness
  0,                                      ! Rain Indicator
  0,                                      ! Snow Indicator
  21,                                     ! Day of Month
  7,                                      ! Month
  SummerDesignDay,                        ! Day Type
  0,                                      ! Daylight Saving Time Indicator
  Wetbulb,                                ! Humidity Indicating Type
  ,                                       ! Humidity Indicating Day Schedule Name
  DefaultMultipliers,                     ! Dry-Bulb Temperature Range Modifier Type
  ,                                       ! Dry-Bulb Temperature Range Modifier Schedule Name
  ASHRAETau,                              ! Solar Model Indicator
  ,                                       ! Beam Solar Day Schedule Name
  ,                                       ! Diffuse Solar Day Schedule Name
  0.387,                                  ! ASHRAE Taub {dimensionless}
  2.172;                                  ! ASHRAE Taud {dimensionless}

OS:ComponentData,
  {3e1dcb20-a6d4-4286-9bcc-44a3efdeb89e}, ! Handle
  Component Data 1,                       ! Name
  {18226df3-5ae6-4910-8829-24b10c4f9db6}, ! UUID
  {6ad00282-fa86-4487-820c-64e5df4b5fb8}, ! Version UUID
  1366304709,                             ! Creation Timestamp
  1366304709,                             ! Version Timestamp
  {5e89d29a-61ce-4a9a-93e9-36f14b79d979}; ! Name of Object 1

