
OS:Version,
  {ff50d4c3-c9af-4220-82f9-4d4d4e5b9c09}, ! Handle
  0.9.3;                                  ! Version Identifier

OS:SizingPeriod:DesignDay,
  {048795a9-a7ae-4f82-88b9-19e5b80766f5}, ! Handle
  BRISTOL Ann Clg .4% Condns WB=>MDB,     ! Name
  29.4,                                   ! Maximum Dry-Bulb Temperature {C}
  10.8,                                   ! Daily Dry-Bulb Temperature Range {deltaC}
  23.9,                                   ! Humidity Indicating Conditions at Maximum Dry-Bulb {BasedOnField A3}
  95931,                                  ! Barometric Pressure {Pa}
  3.2,                                    ! Wind Speed {m/s}
  250,                                    ! Wind Direction {deg}
  0,                                      ! Sky Clearness
  0,                                      ! Rain Indicator
  0,                                      ! Snow Indicator
  21,                                     ! Day of Month
  7,                                      ! Month
  SummerDesignDay,                        ! Day Type
  0,                                      ! Daylight Saving Time Indicator
  Wetbulb,                                ! Humidity Indicating Type
  ,                                       ! Humidity Indicating Day Schedule Name
  DefaultMultipliers,                     ! Dry-Bulb Temperature Range Modifier Type
  ,                                       ! Dry-Bulb Temperature Range Modifier Schedule Name
  ASHRAETau,                              ! Solar Model Indicator
  ,                                       ! Beam Solar Day Schedule Name
  ,                                       ! Diffuse Solar Day Schedule Name
  0.541,                                  ! ASHRAE Taub {dimensionless}
  1.782;                                  ! ASHRAE Taud {dimensionless}

OS:ComponentData,
  {86bf60bd-3207-4e08-a264-80229ff4d76e}, ! Handle
  Component Data 1,                       ! Name
  {0d0ae9f8-7eba-4407-b773-f2c706dd0ed2}, ! UUID
  {a7f23665-6935-4ac2-a2e2-80f8987f2bce}, ! Version UUID
  1366310480,                             ! Creation Timestamp
  1366310480,                             ! Version Timestamp
  {048795a9-a7ae-4f82-88b9-19e5b80766f5}; ! Name of Object 1

