
OS:Version,
  {f019c567-6caf-4924-b28e-91dea1180ac1}, ! Handle
  0.9.3;                                  ! Version Identifier

OS:SizingPeriod:DesignDay,
  {baadba0e-3878-4b38-88ae-fbf992fa6358}, ! Handle
  ALPENA Ann Clg 1% Condns DB=>MWB,       ! Name
  29.2,                                   ! Maximum Dry-Bulb Temperature {C}
  12.7,                                   ! Daily Dry-Bulb Temperature Range {deltaC}
  20.9,                                   ! Humidity Indicating Conditions at Maximum Dry-Bulb {BasedOnField A3}
  98828,                                  ! Barometric Pressure {Pa}
  4.8,                                    ! Wind Speed {m/s}
  230,                                    ! Wind Direction {deg}
  0,                                      ! Sky Clearness
  0,                                      ! Rain Indicator
  0,                                      ! Snow Indicator
  21,                                     ! Day of Month
  7,                                      ! Month
  SummerDesignDay,                        ! Day Type
  0,                                      ! Daylight Saving Time Indicator
  Wetbulb,                                ! Humidity Indicating Type
  ,                                       ! Humidity Indicating Day Schedule Name
  DefaultMultipliers,                     ! Dry-Bulb Temperature Range Modifier Type
  ,                                       ! Dry-Bulb Temperature Range Modifier Schedule Name
  ASHRAETau,                              ! Solar Model Indicator
  ,                                       ! Beam Solar Day Schedule Name
  ,                                       ! Diffuse Solar Day Schedule Name
  0.42,                                   ! ASHRAE Taub {dimensionless}
  2.176;                                  ! ASHRAE Taud {dimensionless}

OS:ComponentData,
  {9955b233-a95b-452e-87b3-d9fa793cb906}, ! Handle
  Component Data 1,                       ! Name
  {bb879e86-cb74-44b8-a1ca-a980dca5cf5f}, ! UUID
  {7c9e5047-1002-41a0-96a8-180c2ac84aad}, ! Version UUID
  1366307938,                             ! Creation Timestamp
  1366307938,                             ! Version Timestamp
  {baadba0e-3878-4b38-88ae-fbf992fa6358}; ! Name of Object 1

