
OS:Version,
  {d6377212-d74d-41fc-9237-09a61cd24bea}, ! Handle
  0.9.3;                                  ! Version Identifier

OS:SizingPeriod:DesignDay,
  {7806bf17-c7fc-4ba4-904a-7b5a2117d17f}, ! Handle
  Birmingham Municipal Ap Ann Clg 2% Condns WB=>MDB, ! Name
  30.2,                                   ! Maximum Dry-Bulb Temperature {C}
  10.3,                                   ! Daily Dry-Bulb Temperature Range {deltaC}
  24.9,                                   ! Humidity Indicating Conditions at Maximum Dry-Bulb {BasedOnField A3}
  99075,                                  ! Barometric Pressure {Pa}
  3.5,                                    ! Wind Speed {m/s}
  330,                                    ! Wind Direction {deg}
  0,                                      ! Sky Clearness
  0,                                      ! Rain Indicator
  0,                                      ! Snow Indicator
  21,                                     ! Day of Month
  7,                                      ! Month
  SummerDesignDay,                        ! Day Type
  0,                                      ! Daylight Saving Time Indicator
  Wetbulb,                                ! Humidity Indicating Type
  ,                                       ! Humidity Indicating Day Schedule Name
  DefaultMultipliers,                     ! Dry-Bulb Temperature Range Modifier Type
  ,                                       ! Dry-Bulb Temperature Range Modifier Schedule Name
  ASHRAETau,                              ! Solar Model Indicator
  ,                                       ! Beam Solar Day Schedule Name
  ,                                       ! Diffuse Solar Day Schedule Name
  0.583,                                  ! ASHRAE Taub {dimensionless}
  1.723;                                  ! ASHRAE Taud {dimensionless}

OS:ComponentData,
  {f9277d3a-e232-4706-b639-c8960b320cbb}, ! Handle
  Component Data 1,                       ! Name
  {c8dfdc80-7f6e-4816-9e5e-b278a9e3ec96}, ! UUID
  {36eb0076-f789-4fca-ad27-d65c075c64db}, ! Version UUID
  1366305649,                             ! Creation Timestamp
  1366305649,                             ! Version Timestamp
  {7806bf17-c7fc-4ba4-904a-7b5a2117d17f}; ! Name of Object 1

