
OS:Version,
  {26e5f4c3-0eeb-4343-9f92-bace54580335}, ! Handle
  0.9.3;                                  ! Version Identifier

OS:SizingPeriod:DesignDay,
  {fdd23f8b-abd6-4f14-be88-33ed4a64bfc1}, ! Handle
  Fairchild Afb Ann Clg 2% Condns DP=>MDB, ! Name
  19.3,                                   ! Maximum Dry-Bulb Temperature {C}
  14.5,                                   ! Daily Dry-Bulb Temperature Range {deltaC}
  12.4,                                   ! Humidity Indicating Conditions at Maximum Dry-Bulb {BasedOnField A3}
  92712,                                  ! Barometric Pressure {Pa}
  3.4,                                    ! Wind Speed {m/s}
  240,                                    ! Wind Direction {deg}
  0,                                      ! Sky Clearness
  0,                                      ! Rain Indicator
  0,                                      ! Snow Indicator
  21,                                     ! Day of Month
  7,                                      ! Month
  SummerDesignDay,                        ! Day Type
  0,                                      ! Daylight Saving Time Indicator
  Dewpoint,                               ! Humidity Indicating Type
  ,                                       ! Humidity Indicating Day Schedule Name
  DefaultMultipliers,                     ! Dry-Bulb Temperature Range Modifier Type
  ,                                       ! Dry-Bulb Temperature Range Modifier Schedule Name
  ASHRAETau,                              ! Solar Model Indicator
  ,                                       ! Beam Solar Day Schedule Name
  ,                                       ! Diffuse Solar Day Schedule Name
  0.353,                                  ! ASHRAE Taub {dimensionless}
  2.387;                                  ! ASHRAE Taud {dimensionless}

OS:ComponentData,
  {c96555e1-0cce-4b02-a3c1-718f14de10bc}, ! Handle
  Component Data 1,                       ! Name
  {9fc88227-0f7f-41e2-8316-9c428a1488e7}, ! UUID
  {6c560066-4a49-4233-8a54-e0e9696b1562}, ! Version UUID
  1366311281,                             ! Creation Timestamp
  1366311281,                             ! Version Timestamp
  {fdd23f8b-abd6-4f14-be88-33ed4a64bfc1}; ! Name of Object 1

