
OS:Version,
  {59935ed7-f2e3-4a47-af4f-82808bafe86a}, ! Handle
  0.9.3;                                  ! Version Identifier

OS:SizingPeriod:DesignDay,
  {3cfe021e-ad06-47db-af0e-aef6e79f0de1}, ! Handle
  Denver Centennial  Golden   N Ann Clg 1% Condns Enth=>MDB, ! Name
  26.6,                                   ! Maximum Dry-Bulb Temperature {C}
  15.2,                                   ! Daily Dry-Bulb Temperature Range {deltaC}
  56600,                                  ! Humidity Indicating Conditions at Maximum Dry-Bulb {BasedOnField A3}
  81198,                                  ! Barometric Pressure {Pa}
  4.9,                                    ! Wind Speed {m/s}
  0,                                      ! Wind Direction {deg}
  0,                                      ! Sky Clearness
  0,                                      ! Rain Indicator
  0,                                      ! Snow Indicator
  21,                                     ! Day of Month
  7,                                      ! Month
  SummerDesignDay,                        ! Day Type
  0,                                      ! Daylight Saving Time Indicator
  Enthalpy,                               ! Humidity Indicating Type
  ,                                       ! Humidity Indicating Day Schedule Name
  DefaultMultipliers,                     ! Dry-Bulb Temperature Range Modifier Type
  ,                                       ! Dry-Bulb Temperature Range Modifier Schedule Name
  ASHRAETau,                              ! Solar Model Indicator
  ,                                       ! Beam Solar Day Schedule Name
  ,                                       ! Diffuse Solar Day Schedule Name
  0.424,                                  ! ASHRAE Taub {dimensionless}
  2.025;                                  ! ASHRAE Taud {dimensionless}

OS:ComponentData,
  {5865770d-0b8c-49b0-93ec-5d9af099dd4e}, ! Handle
  Component Data 1,                       ! Name
  {f1129878-ffad-4821-9bd8-56b2fcfdb4b4}, ! UUID
  {dac6d91b-7e70-4f6f-ad3d-d638aeebab26}, ! Version UUID
  1366306695,                             ! Creation Timestamp
  1366306695,                             ! Version Timestamp
  {3cfe021e-ad06-47db-af0e-aef6e79f0de1}; ! Name of Object 1

