
OS:Version,
  {cf0f89de-b41b-4453-8431-a311f229b0ae}, ! Handle
  0.9.3;                                  ! Version Identifier

OS:SizingPeriod:DesignDay,
  {285b4c9d-c7c8-442c-9e75-539a8fedb788}, ! Handle
  Carlsbad Cavern City Air Term Ann Hum_n 99.6% Condns DP=>MCDB, ! Name
  4,                                      ! Maximum Dry-Bulb Temperature {C}
  0,                                      ! Daily Dry-Bulb Temperature Range {deltaC}
  -18.5,                                  ! Humidity Indicating Conditions at Maximum Dry-Bulb {BasedOnField A3}
  90038,                                  ! Barometric Pressure {Pa}
  2.8,                                    ! Wind Speed {m/s}
  300,                                    ! Wind Direction {deg}
  0,                                      ! Sky Clearness
  0,                                      ! Rain Indicator
  0,                                      ! Snow Indicator
  21,                                     ! Day of Month
  12,                                     ! Month
  WinterDesignDay,                        ! Day Type
  0,                                      ! Daylight Saving Time Indicator
  Dewpoint,                               ! Humidity Indicating Type
  ,                                       ! Humidity Indicating Day Schedule Name
  DefaultMultipliers,                     ! Dry-Bulb Temperature Range Modifier Type
  ,                                       ! Dry-Bulb Temperature Range Modifier Schedule Name
  ASHRAEClearSky;                         ! Solar Model Indicator

OS:ComponentData,
  {37c0b130-e0d7-4b73-ac4c-89f34f693090}, ! Handle
  Component Data 1,                       ! Name
  {a3c0be1a-cfbb-4aed-a0b8-06456ddc87ff}, ! UUID
  {6ae0ae79-36ec-4cee-8c6a-e5421b5b46c5}, ! Version UUID
  1366309374,                             ! Creation Timestamp
  1366309374,                             ! Version Timestamp
  {285b4c9d-c7c8-442c-9e75-539a8fedb788}; ! Name of Object 1

