
OS:Version,
  {c396099f-ed5a-423c-91d2-0026e1789244}, ! Handle
  0.9.3;                                  ! Version Identifier

OS:SizingPeriod:DesignDay,
  {6df4f443-cf78-43c6-ba41-1d6db02b282c}, ! Handle
  Hayden Yampa  Awos Ann Htg Wind 99.6% Condns WS=>MCDB, ! Name
  0.2,                                    ! Maximum Dry-Bulb Temperature {C}
  0,                                      ! Daily Dry-Bulb Temperature Range {deltaC}
  0.2,                                    ! Humidity Indicating Conditions at Maximum Dry-Bulb {BasedOnField A3}
  79377,                                  ! Barometric Pressure {Pa}
  10.4,                                   ! Wind Speed {m/s}
  110,                                    ! Wind Direction {deg}
  0,                                      ! Sky Clearness
  0,                                      ! Rain Indicator
  0,                                      ! Snow Indicator
  21,                                     ! Day of Month
  12,                                     ! Month
  WinterDesignDay,                        ! Day Type
  0,                                      ! Daylight Saving Time Indicator
  Wetbulb,                                ! Humidity Indicating Type
  ,                                       ! Humidity Indicating Day Schedule Name
  DefaultMultipliers,                     ! Dry-Bulb Temperature Range Modifier Type
  ,                                       ! Dry-Bulb Temperature Range Modifier Schedule Name
  ASHRAEClearSky;                         ! Solar Model Indicator

OS:ComponentData,
  {e79c4b41-b585-4aec-aca2-756cdbf41214}, ! Handle
  Component Data 1,                       ! Name
  {e7812154-b21a-4492-a2fe-992471e53de1}, ! UUID
  {f2609923-d425-434d-9ad4-7f8ad6142ceb}, ! Version UUID
  1366306711,                             ! Creation Timestamp
  1366306711,                             ! Version Timestamp
  {6df4f443-cf78-43c6-ba41-1d6db02b282c}; ! Name of Object 1

