
OS:Version,
  {02194726-c48c-4e40-8675-b48016e0820d}, ! Handle
  0.9.3;                                  ! Version Identifier

OS:SizingPeriod:DesignDay,
  {054e8695-07ad-49e0-a79e-8f29fb164c4a}, ! Handle
  Georgetown  Awos Ann Hum_n 99.6% Condns DP=>MCDB, ! Name
  1.9,                                    ! Maximum Dry-Bulb Temperature {C}
  0,                                      ! Daily Dry-Bulb Temperature Range {deltaC}
  -12,                                    ! Humidity Indicating Conditions at Maximum Dry-Bulb {BasedOnField A3}
  98475,                                  ! Barometric Pressure {Pa}
  2.6,                                    ! Wind Speed {m/s}
  0,                                      ! Wind Direction {deg}
  0,                                      ! Sky Clearness
  0,                                      ! Rain Indicator
  0,                                      ! Snow Indicator
  21,                                     ! Day of Month
  1,                                      ! Month
  WinterDesignDay,                        ! Day Type
  0,                                      ! Daylight Saving Time Indicator
  Dewpoint,                               ! Humidity Indicating Type
  ,                                       ! Humidity Indicating Day Schedule Name
  DefaultMultipliers,                     ! Dry-Bulb Temperature Range Modifier Type
  ,                                       ! Dry-Bulb Temperature Range Modifier Schedule Name
  ASHRAEClearSky;                         ! Solar Model Indicator

OS:ComponentData,
  {c206ad53-6d7e-4c12-90c4-9ea27f8a7b56}, ! Handle
  Component Data 1,                       ! Name
  {da13f00a-17d8-40a1-8e62-998174e8abc6}, ! UUID
  {3799e2ea-3c46-4125-8c94-0a22044e58a5}, ! Version UUID
  1366310721,                             ! Creation Timestamp
  1366310721,                             ! Version Timestamp
  {054e8695-07ad-49e0-a79e-8f29fb164c4a}; ! Name of Object 1

