
OS:Version,
  {3b6165f2-6665-471e-8ed9-f1cf450d776f}, ! Handle
  0.9.3;                                  ! Version Identifier

OS:SizingPeriod:DesignDay,
  {5f4f4457-f1b2-437e-b3d5-0237d8b72972}, ! Handle
  Elko Municipal Arpt Ann Hum_n 99% Condns DP=>MCDB, ! Name
  -15.2,                                  ! Maximum Dry-Bulb Temperature {C}
  0,                                      ! Daily Dry-Bulb Temperature Range {deltaC}
  -19.9,                                  ! Humidity Indicating Conditions at Maximum Dry-Bulb {BasedOnField A3}
  84059,                                  ! Barometric Pressure {Pa}
  1.6,                                    ! Wind Speed {m/s}
  90,                                     ! Wind Direction {deg}
  0,                                      ! Sky Clearness
  0,                                      ! Rain Indicator
  0,                                      ! Snow Indicator
  21,                                     ! Day of Month
  1,                                      ! Month
  WinterDesignDay,                        ! Day Type
  0,                                      ! Daylight Saving Time Indicator
  Dewpoint,                               ! Humidity Indicating Type
  ,                                       ! Humidity Indicating Day Schedule Name
  DefaultMultipliers,                     ! Dry-Bulb Temperature Range Modifier Type
  ,                                       ! Dry-Bulb Temperature Range Modifier Schedule Name
  ASHRAEClearSky;                         ! Solar Model Indicator

OS:ComponentData,
  {f834c3ed-2bdd-4246-b19e-cb7941b989da}, ! Handle
  Component Data 1,                       ! Name
  {46965b5c-d66f-4ae1-91a7-abf1bc558fa5}, ! UUID
  {eeddd5e2-0b82-461d-89f9-08f762152cc1}, ! Version UUID
  1366309466,                             ! Creation Timestamp
  1366309466,                             ! Version Timestamp
  {5f4f4457-f1b2-437e-b3d5-0237d8b72972}; ! Name of Object 1

