
OS:Version,
  {3beccab3-3fb4-4e24-bd90-5cd3a75c06f5}, ! Handle
  0.9.3;                                  ! Version Identifier

OS:SizingPeriod:DesignDay,
  {ffdf063c-9443-42c6-814b-094b1f4fe0c9}, ! Handle
  Aurora State Ann Htg 99% Condns DB,     ! Name
  -1.3,                                   ! Maximum Dry-Bulb Temperature {C}
  0,                                      ! Daily Dry-Bulb Temperature Range {deltaC}
  -1.3,                                   ! Humidity Indicating Conditions at Maximum Dry-Bulb {BasedOnField A3}
  100606,                                 ! Barometric Pressure {Pa}
  0.8,                                    ! Wind Speed {m/s}
  0,                                      ! Wind Direction {deg}
  0,                                      ! Sky Clearness
  0,                                      ! Rain Indicator
  0,                                      ! Snow Indicator
  21,                                     ! Day of Month
  12,                                     ! Month
  WinterDesignDay,                        ! Day Type
  0,                                      ! Daylight Saving Time Indicator
  Wetbulb,                                ! Humidity Indicating Type
  ,                                       ! Humidity Indicating Day Schedule Name
  DefaultMultipliers,                     ! Dry-Bulb Temperature Range Modifier Type
  ,                                       ! Dry-Bulb Temperature Range Modifier Schedule Name
  ASHRAEClearSky;                         ! Solar Model Indicator

OS:ComponentData,
  {655f0f96-567a-4515-822f-5b7b0501141f}, ! Handle
  Component Data 1,                       ! Name
  {b67116d8-71c7-4b13-b1ad-b6a7c7776ef7}, ! UUID
  {ca4f3a41-47fd-46bb-ba98-7982bcae187b}, ! Version UUID
  1366309981,                             ! Creation Timestamp
  1366309981,                             ! Version Timestamp
  {ffdf063c-9443-42c6-814b-094b1f4fe0c9}; ! Name of Object 1

