
OS:Version,
  {07240959-34e1-486c-a460-b452b8f3fce5}, ! Handle
  0.9.3;                                  ! Version Identifier

OS:SizingPeriod:DesignDay,
  {3dc8d59f-be29-445c-bd5c-01ebd4f1bfd7}, ! Handle
  Glenwood  Asos Ann Clg .4% Condns Enth=>MDB, ! Name
  29.7,                                   ! Maximum Dry-Bulb Temperature {C}
  10.7,                                   ! Daily Dry-Bulb Temperature Range {deltaC}
  79500,                                  ! Humidity Indicating Conditions at Maximum Dry-Bulb {BasedOnField A3}
  96322,                                  ! Barometric Pressure {Pa}
  6.1,                                    ! Wind Speed {m/s}
  180,                                    ! Wind Direction {deg}
  0,                                      ! Sky Clearness
  0,                                      ! Rain Indicator
  0,                                      ! Snow Indicator
  21,                                     ! Day of Month
  7,                                      ! Month
  SummerDesignDay,                        ! Day Type
  0,                                      ! Daylight Saving Time Indicator
  Enthalpy,                               ! Humidity Indicating Type
  ,                                       ! Humidity Indicating Day Schedule Name
  DefaultMultipliers,                     ! Dry-Bulb Temperature Range Modifier Type
  ,                                       ! Dry-Bulb Temperature Range Modifier Schedule Name
  ASHRAETau,                              ! Solar Model Indicator
  ,                                       ! Beam Solar Day Schedule Name
  ,                                       ! Diffuse Solar Day Schedule Name
  0.391,                                  ! ASHRAE Taub {dimensionless}
  2.266;                                  ! ASHRAE Taud {dimensionless}

OS:ComponentData,
  {b91440f8-99c1-438a-9c9c-be80d9353765}, ! Handle
  Component Data 1,                       ! Name
  {4991724b-dab3-404e-b9e3-b97ca39f35b9}, ! UUID
  {a28b9aff-cea4-482d-a8c0-b1a8486243e1}, ! Version UUID
  1366308243,                             ! Creation Timestamp
  1366308243,                             ! Version Timestamp
  {3dc8d59f-be29-445c-bd5c-01ebd4f1bfd7}; ! Name of Object 1

