
OS:Version,
  {3c6b1848-00bf-48bc-984c-ceb1324a0952}, ! Handle
  0.9.3;                                  ! Version Identifier

OS:SizingPeriod:DesignDay,
  {b73c4e19-9699-4b32-bd9d-d2ee48fe3dee}, ! Handle
  Ely Yelland Field Ann Hum_n 99.6% Condns DP=>MCDB, ! Name
  -16.9,                                  ! Maximum Dry-Bulb Temperature {C}
  0,                                      ! Daily Dry-Bulb Temperature Range {deltaC}
  -23.8,                                  ! Humidity Indicating Conditions at Maximum Dry-Bulb {BasedOnField A3}
  80397,                                  ! Barometric Pressure {Pa}
  5,                                      ! Wind Speed {m/s}
  180,                                    ! Wind Direction {deg}
  0,                                      ! Sky Clearness
  0,                                      ! Rain Indicator
  0,                                      ! Snow Indicator
  21,                                     ! Day of Month
  12,                                     ! Month
  WinterDesignDay,                        ! Day Type
  0,                                      ! Daylight Saving Time Indicator
  Dewpoint,                               ! Humidity Indicating Type
  ,                                       ! Humidity Indicating Day Schedule Name
  DefaultMultipliers,                     ! Dry-Bulb Temperature Range Modifier Type
  ,                                       ! Dry-Bulb Temperature Range Modifier Schedule Name
  ASHRAEClearSky;                         ! Solar Model Indicator

OS:ComponentData,
  {64ed76be-60b6-47f9-9ccf-5f0fceb97bb3}, ! Handle
  Component Data 1,                       ! Name
  {1f0577e7-e4d1-4277-85df-d6a91be72d11}, ! UUID
  {6fd700fb-0703-4189-ab49-9b641e388e45}, ! Version UUID
  1366309476,                             ! Creation Timestamp
  1366309476,                             ! Version Timestamp
  {b73c4e19-9699-4b32-bd9d-d2ee48fe3dee}; ! Name of Object 1

