
OS:Version,
  {5b925e0e-bc25-469b-ad34-4750e61713cb}, ! Handle
  0.9.3;                                  ! Version Identifier

OS:SizingPeriod:DesignDay,
  {b10b8137-16fd-4b66-a2c1-9a5f7c0eee7d}, ! Handle
  Ely Muni Ann Clg 2% Condns DB=>MWB,     ! Name
  26.3,                                   ! Maximum Dry-Bulb Temperature {C}
  12.2,                                   ! Daily Dry-Bulb Temperature Range {deltaC}
  19,                                     ! Humidity Indicating Conditions at Maximum Dry-Bulb {BasedOnField A3}
  95977,                                  ! Barometric Pressure {Pa}
  4,                                      ! Wind Speed {m/s}
  230,                                    ! Wind Direction {deg}
  0,                                      ! Sky Clearness
  0,                                      ! Rain Indicator
  0,                                      ! Snow Indicator
  21,                                     ! Day of Month
  7,                                      ! Month
  SummerDesignDay,                        ! Day Type
  0,                                      ! Daylight Saving Time Indicator
  Wetbulb,                                ! Humidity Indicating Type
  ,                                       ! Humidity Indicating Day Schedule Name
  DefaultMultipliers,                     ! Dry-Bulb Temperature Range Modifier Type
  ,                                       ! Dry-Bulb Temperature Range Modifier Schedule Name
  ASHRAETau,                              ! Solar Model Indicator
  ,                                       ! Beam Solar Day Schedule Name
  ,                                       ! Diffuse Solar Day Schedule Name
  0.408,                                  ! ASHRAE Taub {dimensionless}
  2.169;                                  ! ASHRAE Taud {dimensionless}

OS:ComponentData,
  {19733f6d-0edf-4b70-954c-41a053e09bcb}, ! Handle
  Component Data 1,                       ! Name
  {99df5f48-9cc4-4329-8fef-ef76c33bc97f}, ! UUID
  {b06816ba-5ee3-4ec9-86b8-c0da55074dbf}, ! Version UUID
  1366308215,                             ! Creation Timestamp
  1366308215,                             ! Version Timestamp
  {b10b8137-16fd-4b66-a2c1-9a5f7c0eee7d}; ! Name of Object 1

