
OS:Version,
  {cad9389c-c272-4240-92de-cc806faeb590}, ! Handle
  0.9.3;                                  ! Version Identifier

OS:SizingPeriod:DesignDay,
  {d1873932-9f6a-40c4-8346-be8f5e8d2ebc}, ! Handle
  Anchorage Elmendorf Ann Clg 1% Condns DB=>MWB, ! Name
  21.8,                                   ! Maximum Dry-Bulb Temperature {C}
  7.5,                                    ! Daily Dry-Bulb Temperature Range {deltaC}
  14.2,                                   ! Humidity Indicating Conditions at Maximum Dry-Bulb {BasedOnField A3}
  100618,                                 ! Barometric Pressure {Pa}
  3.8,                                    ! Wind Speed {m/s}
  260,                                    ! Wind Direction {deg}
  0,                                      ! Sky Clearness
  0,                                      ! Rain Indicator
  0,                                      ! Snow Indicator
  21,                                     ! Day of Month
  7,                                      ! Month
  SummerDesignDay,                        ! Day Type
  0,                                      ! Daylight Saving Time Indicator
  Wetbulb,                                ! Humidity Indicating Type
  ,                                       ! Humidity Indicating Day Schedule Name
  DefaultMultipliers,                     ! Dry-Bulb Temperature Range Modifier Type
  ,                                       ! Dry-Bulb Temperature Range Modifier Schedule Name
  ASHRAETau,                              ! Solar Model Indicator
  ,                                       ! Beam Solar Day Schedule Name
  ,                                       ! Diffuse Solar Day Schedule Name
  0.391,                                  ! ASHRAE Taub {dimensionless}
  2.151;                                  ! ASHRAE Taud {dimensionless}

