
OS:Version,
  {4972bddc-f06b-4108-ba13-228a977e7ad1}, ! Handle
  0.9.3;                                  ! Version Identifier

OS:SizingPeriod:DesignDay,
  {03294ec1-82a4-425b-83d9-fd492a59cba1}, ! Handle
  Goodland Ann Clg .4% Condns WB=>MDB,    ! Name
  30.2,                                   ! Maximum Dry-Bulb Temperature {C}
  15,                                     ! Daily Dry-Bulb Temperature Range {deltaC}
  21.7,                                   ! Humidity Indicating Conditions at Maximum Dry-Bulb {BasedOnField A3}
  88531,                                  ! Barometric Pressure {Pa}
  6,                                      ! Wind Speed {m/s}
  160,                                    ! Wind Direction {deg}
  0,                                      ! Sky Clearness
  0,                                      ! Rain Indicator
  0,                                      ! Snow Indicator
  21,                                     ! Day of Month
  7,                                      ! Month
  SummerDesignDay,                        ! Day Type
  0,                                      ! Daylight Saving Time Indicator
  Wetbulb,                                ! Humidity Indicating Type
  ,                                       ! Humidity Indicating Day Schedule Name
  DefaultMultipliers,                     ! Dry-Bulb Temperature Range Modifier Type
  ,                                       ! Dry-Bulb Temperature Range Modifier Schedule Name
  ASHRAETau,                              ! Solar Model Indicator
  ,                                       ! Beam Solar Day Schedule Name
  ,                                       ! Diffuse Solar Day Schedule Name
  0.421,                                  ! ASHRAE Taub {dimensionless}
  2.065;                                  ! ASHRAE Taud {dimensionless}

OS:ComponentData,
  {a0572649-7bd9-4926-87c4-7b2b200a73fd}, ! Handle
  Component Data 1,                       ! Name
  {765b3d49-bef2-4588-9b20-2dc08baacabf}, ! UUID
  {2994059d-fa79-4909-bf7e-28e095d74183}, ! Version UUID
  1366307530,                             ! Creation Timestamp
  1366307530,                             ! Version Timestamp
  {03294ec1-82a4-425b-83d9-fd492a59cba1}; ! Name of Object 1

