
OS:Version,
  {146ead51-e3be-49c2-92ce-0c79e1016abb}, ! Handle
  0.9.3;                                  ! Version Identifier

OS:SizingPeriod:DesignDay,
  {a3fc4380-0da7-4ffb-a584-815ca2a353a6}, ! Handle
  GLASGOW Ann Clg .4% Condns WB=>MDB,     ! Name
  29.9,                                   ! Maximum Dry-Bulb Temperature {C}
  14.5,                                   ! Daily Dry-Bulb Temperature Range {deltaC}
  20.4,                                   ! Humidity Indicating Conditions at Maximum Dry-Bulb {BasedOnField A3}
  93194,                                  ! Barometric Pressure {Pa}
  5.4,                                    ! Wind Speed {m/s}
  150,                                    ! Wind Direction {deg}
  0,                                      ! Sky Clearness
  0,                                      ! Rain Indicator
  0,                                      ! Snow Indicator
  21,                                     ! Day of Month
  7,                                      ! Month
  SummerDesignDay,                        ! Day Type
  0,                                      ! Daylight Saving Time Indicator
  Wetbulb,                                ! Humidity Indicating Type
  ,                                       ! Humidity Indicating Day Schedule Name
  DefaultMultipliers,                     ! Dry-Bulb Temperature Range Modifier Type
  ,                                       ! Dry-Bulb Temperature Range Modifier Schedule Name
  ASHRAETau,                              ! Solar Model Indicator
  ,                                       ! Beam Solar Day Schedule Name
  ,                                       ! Diffuse Solar Day Schedule Name
  0.424,                                  ! ASHRAE Taub {dimensionless}
  2.044;                                  ! ASHRAE Taud {dimensionless}

OS:ComponentData,
  {16e612d3-db09-4ba0-a39f-9a36c7105826}, ! Handle
  Component Data 1,                       ! Name
  {ed754f91-f086-4f97-8595-d73363d197b2}, ! UUID
  {5d96d228-d220-462c-9f90-af3ed6cea6e4}, ! Version UUID
  1366308755,                             ! Creation Timestamp
  1366308755,                             ! Version Timestamp
  {a3fc4380-0da7-4ffb-a584-815ca2a353a6}; ! Name of Object 1

