
OS:Version,
  {731c37c0-3055-47cc-ae4d-d516ae9c09fe}, ! Handle
  0.9.3;                                  ! Version Identifier

OS:SizingPeriod:DesignDay,
  {a4eb5d1a-9fa2-44c3-a371-19326ad5a029}, ! Handle
  Hot Springs Ingalls Ann Clg 2% Condns DB=>MWB, ! Name
  26,                                     ! Maximum Dry-Bulb Temperature {C}
  7.7,                                    ! Daily Dry-Bulb Temperature Range {deltaC}
  19,                                     ! Humidity Indicating Conditions at Maximum Dry-Bulb {BasedOnField A3}
  88187,                                  ! Barometric Pressure {Pa}
  3.5,                                    ! Wind Speed {m/s}
  280,                                    ! Wind Direction {deg}
  0,                                      ! Sky Clearness
  0,                                      ! Rain Indicator
  0,                                      ! Snow Indicator
  21,                                     ! Day of Month
  7,                                      ! Month
  SummerDesignDay,                        ! Day Type
  0,                                      ! Daylight Saving Time Indicator
  Wetbulb,                                ! Humidity Indicating Type
  ,                                       ! Humidity Indicating Day Schedule Name
  DefaultMultipliers,                     ! Dry-Bulb Temperature Range Modifier Type
  ,                                       ! Dry-Bulb Temperature Range Modifier Schedule Name
  ASHRAETau,                              ! Solar Model Indicator
  ,                                       ! Beam Solar Day Schedule Name
  ,                                       ! Diffuse Solar Day Schedule Name
  0.445,                                  ! ASHRAE Taub {dimensionless}
  2.005;                                  ! ASHRAE Taud {dimensionless}

OS:ComponentData,
  {33c9b058-3ef7-4659-b547-31680f8f40cc}, ! Handle
  Component Data 1,                       ! Name
  {6f6a1c5b-630d-49ff-8d79-a26c84ac2e57}, ! UUID
  {c7745d78-5896-4006-8212-d54ae2cbff27}, ! Version UUID
  1366311065,                             ! Creation Timestamp
  1366311065,                             ! Version Timestamp
  {a4eb5d1a-9fa2-44c3-a371-19326ad5a029}; ! Name of Object 1

