
OS:Version,
  {692ddcf3-8793-48bd-bf3d-e130b0822007}, ! Handle
  0.9.3;                                  ! Version Identifier

OS:SizingPeriod:DesignDay,
  {e31cd2d7-8e9d-4554-a61c-eddf5e117a16}, ! Handle
  Elko Municipal Arpt Ann Clg 2% Condns Enth=>MDB, ! Name
  28.7,                                   ! Maximum Dry-Bulb Temperature {C}
  21.8,                                   ! Daily Dry-Bulb Temperature Range {deltaC}
  48800,                                  ! Humidity Indicating Conditions at Maximum Dry-Bulb {BasedOnField A3}
  84059,                                  ! Barometric Pressure {Pa}
  4.1,                                    ! Wind Speed {m/s}
  240,                                    ! Wind Direction {deg}
  0,                                      ! Sky Clearness
  0,                                      ! Rain Indicator
  0,                                      ! Snow Indicator
  21,                                     ! Day of Month
  7,                                      ! Month
  SummerDesignDay,                        ! Day Type
  0,                                      ! Daylight Saving Time Indicator
  Enthalpy,                               ! Humidity Indicating Type
  ,                                       ! Humidity Indicating Day Schedule Name
  DefaultMultipliers,                     ! Dry-Bulb Temperature Range Modifier Type
  ,                                       ! Dry-Bulb Temperature Range Modifier Schedule Name
  ASHRAETau,                              ! Solar Model Indicator
  ,                                       ! Beam Solar Day Schedule Name
  ,                                       ! Diffuse Solar Day Schedule Name
  0.446,                                  ! ASHRAE Taub {dimensionless}
  1.888;                                  ! ASHRAE Taud {dimensionless}

OS:ComponentData,
  {f0d1a64f-1741-41a8-abc6-9e531501adc8}, ! Handle
  Component Data 1,                       ! Name
  {b65519e1-f9a9-4053-8855-cee6a9cfa3ee}, ! UUID
  {535ec6d4-e993-44e2-ad2b-f2aff2be4202}, ! Version UUID
  1366309468,                             ! Creation Timestamp
  1366309468,                             ! Version Timestamp
  {e31cd2d7-8e9d-4554-a61c-eddf5e117a16}; ! Name of Object 1

