
OS:Version,
  {73d98a07-e553-4bab-83c3-4978b899249b}, ! Handle
  0.9.3;                                  ! Version Identifier

OS:SizingPeriod:DesignDay,
  {67e64b85-5413-4a07-87ed-47ff7e1c17e0}, ! Handle
  Camarillo  Awos Ann Clg .4% Condns DP=>MDB, ! Name
  23.7,                                   ! Maximum Dry-Bulb Temperature {C}
  9.7,                                    ! Daily Dry-Bulb Temperature Range {deltaC}
  18.8,                                   ! Humidity Indicating Conditions at Maximum Dry-Bulb {BasedOnField A3}
  101049,                                 ! Barometric Pressure {Pa}
  5.8,                                    ! Wind Speed {m/s}
  60,                                     ! Wind Direction {deg}
  0,                                      ! Sky Clearness
  0,                                      ! Rain Indicator
  0,                                      ! Snow Indicator
  21,                                     ! Day of Month
  8,                                      ! Month
  SummerDesignDay,                        ! Day Type
  0,                                      ! Daylight Saving Time Indicator
  Dewpoint,                               ! Humidity Indicating Type
  ,                                       ! Humidity Indicating Day Schedule Name
  DefaultMultipliers,                     ! Dry-Bulb Temperature Range Modifier Type
  ,                                       ! Dry-Bulb Temperature Range Modifier Schedule Name
  ASHRAETau,                              ! Solar Model Indicator
  ,                                       ! Beam Solar Day Schedule Name
  ,                                       ! Diffuse Solar Day Schedule Name
  0.428,                                  ! ASHRAE Taub {dimensionless}
  2.187;                                  ! ASHRAE Taud {dimensionless}

OS:ComponentData,
  {ab61dfff-6d70-4780-a79a-09a58ee4ecdf}, ! Handle
  Component Data 1,                       ! Name
  {10258091-5353-455c-94ae-f7dd0e551f73}, ! UUID
  {f2e6394c-6d37-447c-a74b-5562089640bd}, ! Version UUID
  1366306396,                             ! Creation Timestamp
  1366306396,                             ! Version Timestamp
  {67e64b85-5413-4a07-87ed-47ff7e1c17e0}; ! Name of Object 1

