
OS:Version,
  {3c66da12-433c-4a0a-972a-3cdb439e4426}, ! Handle
  0.9.3;                                  ! Version Identifier

OS:SizingPeriod:DesignDay,
  {1e19fc61-4307-4abf-98db-b5ae990f4dcb}, ! Handle
  Dinwiddie Co Ann Clg 2% Condns DP=>MDB, ! Name
  28.6,                                   ! Maximum Dry-Bulb Temperature {C}
  12.5,                                   ! Daily Dry-Bulb Temperature Range {deltaC}
  23.8,                                   ! Humidity Indicating Conditions at Maximum Dry-Bulb {BasedOnField A3}
  100606,                                 ! Barometric Pressure {Pa}
  3,                                      ! Wind Speed {m/s}
  240,                                    ! Wind Direction {deg}
  0,                                      ! Sky Clearness
  0,                                      ! Rain Indicator
  0,                                      ! Snow Indicator
  21,                                     ! Day of Month
  7,                                      ! Month
  SummerDesignDay,                        ! Day Type
  0,                                      ! Daylight Saving Time Indicator
  Dewpoint,                               ! Humidity Indicating Type
  ,                                       ! Humidity Indicating Day Schedule Name
  DefaultMultipliers,                     ! Dry-Bulb Temperature Range Modifier Type
  ,                                       ! Dry-Bulb Temperature Range Modifier Schedule Name
  ASHRAETau,                              ! Solar Model Indicator
  ,                                       ! Beam Solar Day Schedule Name
  ,                                       ! Diffuse Solar Day Schedule Name
  0.569,                                  ! ASHRAE Taub {dimensionless}
  1.737;                                  ! ASHRAE Taud {dimensionless}

OS:ComponentData,
  {ae17db54-ee5a-42a3-b333-b5c84e3c62c5}, ! Handle
  Component Data 1,                       ! Name
  {a0257374-cfce-490f-ae44-c0483be36b6c}, ! UUID
  {f4ea3a5c-21ed-4d21-bbca-1cfe68297bbf}, ! Version UUID
  1366311152,                             ! Creation Timestamp
  1366311152,                             ! Version Timestamp
  {1e19fc61-4307-4abf-98db-b5ae990f4dcb}; ! Name of Object 1

