
OS:Version,
  {28d66639-af9e-4614-8988-d0af80fe83e1}, ! Handle
  0.9.3;                                  ! Version Identifier

OS:SizingPeriod:DesignDay,
  {bd95ee3f-d019-42d3-b5fe-d04361bd8f94}, ! Handle
  Cut Bank Ann Clg 2% Condns DP=>MDB,     ! Name
  18.1,                                   ! Maximum Dry-Bulb Temperature {C}
  15.1,                                   ! Daily Dry-Bulb Temperature Range {deltaC}
  10.9,                                   ! Humidity Indicating Conditions at Maximum Dry-Bulb {BasedOnField A3}
  87983,                                  ! Barometric Pressure {Pa}
  5.8,                                    ! Wind Speed {m/s}
  260,                                    ! Wind Direction {deg}
  0,                                      ! Sky Clearness
  0,                                      ! Rain Indicator
  0,                                      ! Snow Indicator
  21,                                     ! Day of Month
  7,                                      ! Month
  SummerDesignDay,                        ! Day Type
  0,                                      ! Daylight Saving Time Indicator
  Dewpoint,                               ! Humidity Indicating Type
  ,                                       ! Humidity Indicating Day Schedule Name
  DefaultMultipliers,                     ! Dry-Bulb Temperature Range Modifier Type
  ,                                       ! Dry-Bulb Temperature Range Modifier Schedule Name
  ASHRAETau,                              ! Solar Model Indicator
  ,                                       ! Beam Solar Day Schedule Name
  ,                                       ! Diffuse Solar Day Schedule Name
  0.368,                                  ! ASHRAE Taub {dimensionless}
  2.249;                                  ! ASHRAE Taud {dimensionless}

OS:ComponentData,
  {83cdec3e-1243-4fc6-a1ec-1613d8e10346}, ! Handle
  Component Data 1,                       ! Name
  {de6f693a-e326-41ce-aae2-babb0bcd4371}, ! UUID
  {5d4c36f6-b059-4464-9995-05fdf8e7d487}, ! Version UUID
  1366308741,                             ! Creation Timestamp
  1366308741,                             ! Version Timestamp
  {bd95ee3f-d019-42d3-b5fe-d04361bd8f94}; ! Name of Object 1

