
OS:Version,
  {f32d7db7-909b-401f-b8ec-0edf7911ffdc}, ! Handle
  0.9.3;                                  ! Version Identifier

OS:SizingPeriod:DesignDay,
  {bca479be-9004-4c8b-9f55-eaf94c0b1b48}, ! Handle
  Dickinson Municipal Ap Ann Hum_n 99% Condns DP=>MCDB, ! Name
  -24.5,                                  ! Maximum Dry-Bulb Temperature {C}
  0,                                      ! Daily Dry-Bulb Temperature Range {deltaC}
  -28.4,                                  ! Humidity Indicating Conditions at Maximum Dry-Bulb {BasedOnField A3}
  92210,                                  ! Barometric Pressure {Pa}
  5.6,                                    ! Wind Speed {m/s}
  290,                                    ! Wind Direction {deg}
  0,                                      ! Sky Clearness
  0,                                      ! Rain Indicator
  0,                                      ! Snow Indicator
  21,                                     ! Day of Month
  1,                                      ! Month
  WinterDesignDay,                        ! Day Type
  0,                                      ! Daylight Saving Time Indicator
  Dewpoint,                               ! Humidity Indicating Type
  ,                                       ! Humidity Indicating Day Schedule Name
  DefaultMultipliers,                     ! Dry-Bulb Temperature Range Modifier Type
  ,                                       ! Dry-Bulb Temperature Range Modifier Schedule Name
  ASHRAEClearSky;                         ! Solar Model Indicator

OS:ComponentData,
  {9b7e398e-ffb8-4059-86d9-10b0703b9518}, ! Handle
  Component Data 1,                       ! Name
  {1f5c11e6-b9a1-441c-b89e-49d310ed9b6a}, ! UUID
  {def09d14-d1c1-4e33-b777-2441c8a3c01f}, ! Version UUID
  1366309019,                             ! Creation Timestamp
  1366309019,                             ! Version Timestamp
  {bca479be-9004-4c8b-9f55-eaf94c0b1b48}; ! Name of Object 1

