
OS:Version,
  {f210f007-5e85-4a31-985a-9b771a7195bb}, ! Handle
  0.9.3;                                  ! Version Identifier

OS:SizingPeriod:DesignDay,
  {80872eeb-240c-4448-be71-50bcc7761b8e}, ! Handle
  Grand Junction Ann Clg 1% Condns DP=>MDB, ! Name
  20.8,                                   ! Maximum Dry-Bulb Temperature {C}
  15.3,                                   ! Daily Dry-Bulb Temperature Range {deltaC}
  15,                                     ! Humidity Indicating Conditions at Maximum Dry-Bulb {BasedOnField A3}
  84816,                                  ! Barometric Pressure {Pa}
  4.6,                                    ! Wind Speed {m/s}
  270,                                    ! Wind Direction {deg}
  0,                                      ! Sky Clearness
  0,                                      ! Rain Indicator
  0,                                      ! Snow Indicator
  21,                                     ! Day of Month
  7,                                      ! Month
  SummerDesignDay,                        ! Day Type
  0,                                      ! Daylight Saving Time Indicator
  Dewpoint,                               ! Humidity Indicating Type
  ,                                       ! Humidity Indicating Day Schedule Name
  DefaultMultipliers,                     ! Dry-Bulb Temperature Range Modifier Type
  ,                                       ! Dry-Bulb Temperature Range Modifier Schedule Name
  ASHRAETau,                              ! Solar Model Indicator
  ,                                       ! Beam Solar Day Schedule Name
  ,                                       ! Diffuse Solar Day Schedule Name
  0.41,                                   ! ASHRAE Taub {dimensionless}
  2.106;                                  ! ASHRAE Taud {dimensionless}

OS:ComponentData,
  {172f42bb-9c17-4639-aae2-5984a236ab9a}, ! Handle
  Component Data 1,                       ! Name
  {7efd0aa5-4572-4298-8047-df0cfffef8b6}, ! UUID
  {01f70b26-3e22-4065-9307-337d716ca70b}, ! Version UUID
  1366306697,                             ! Creation Timestamp
  1366306697,                             ! Version Timestamp
  {80872eeb-240c-4448-be71-50bcc7761b8e}; ! Name of Object 1

