
OS:Version,
  {da193a07-f885-4ae8-ab9a-44e724d7c757}, ! Handle
  0.9.3;                                  ! Version Identifier

OS:SizingPeriod:DesignDay,
  {147e37ea-205a-4719-95a5-79f3c6d07e38}, ! Handle
  Lompoc  Awos Ann Clg .4% Condns DP=>MDB, ! Name
  20.7,                                   ! Maximum Dry-Bulb Temperature {C}
  8.9,                                    ! Daily Dry-Bulb Temperature Range {deltaC}
  16.4,                                   ! Humidity Indicating Conditions at Maximum Dry-Bulb {BasedOnField A3}
  101001,                                 ! Barometric Pressure {Pa}
  4.8,                                    ! Wind Speed {m/s}
  270,                                    ! Wind Direction {deg}
  0,                                      ! Sky Clearness
  0,                                      ! Rain Indicator
  0,                                      ! Snow Indicator
  21,                                     ! Day of Month
  8,                                      ! Month
  SummerDesignDay,                        ! Day Type
  0,                                      ! Daylight Saving Time Indicator
  Dewpoint,                               ! Humidity Indicating Type
  ,                                       ! Humidity Indicating Day Schedule Name
  DefaultMultipliers,                     ! Dry-Bulb Temperature Range Modifier Type
  ,                                       ! Dry-Bulb Temperature Range Modifier Schedule Name
  ASHRAETau,                              ! Solar Model Indicator
  ,                                       ! Beam Solar Day Schedule Name
  ,                                       ! Diffuse Solar Day Schedule Name
  0.369,                                  ! ASHRAE Taub {dimensionless}
  2.427;                                  ! ASHRAE Taud {dimensionless}

OS:ComponentData,
  {0dddaffd-9aea-436d-9ab6-331760e54749}, ! Handle
  Component Data 1,                       ! Name
  {e52f2d8b-b6d7-47cf-99a8-5bfd5dd36a91}, ! UUID
  {261d128e-326b-49e5-ab45-b69e62d442be}, ! Version UUID
  1366306466,                             ! Creation Timestamp
  1366306466,                             ! Version Timestamp
  {147e37ea-205a-4719-95a5-79f3c6d07e38}; ! Name of Object 1

