
OS:Version,
  {f27421e3-6dcc-4e4d-ae8f-572542ae34d1}, ! Handle
  0.9.3;                                  ! Version Identifier

OS:SizingPeriod:DesignDay,
  {792ece27-4b46-46b3-98a7-c217dc4086d8}, ! Handle
  Camp Mabry Ann Clg 2% Condns WB=>MDB,   ! Name
  30.8,                                   ! Maximum Dry-Bulb Temperature {C}
  11.7,                                   ! Daily Dry-Bulb Temperature Range {deltaC}
  25.1,                                   ! Humidity Indicating Conditions at Maximum Dry-Bulb {BasedOnField A3}
  98969,                                  ! Barometric Pressure {Pa}
  3.7,                                    ! Wind Speed {m/s}
  160,                                    ! Wind Direction {deg}
  0,                                      ! Sky Clearness
  0,                                      ! Rain Indicator
  0,                                      ! Snow Indicator
  21,                                     ! Day of Month
  8,                                      ! Month
  SummerDesignDay,                        ! Day Type
  0,                                      ! Daylight Saving Time Indicator
  Wetbulb,                                ! Humidity Indicating Type
  ,                                       ! Humidity Indicating Day Schedule Name
  DefaultMultipliers,                     ! Dry-Bulb Temperature Range Modifier Type
  ,                                       ! Dry-Bulb Temperature Range Modifier Schedule Name
  ASHRAETau,                              ! Solar Model Indicator
  ,                                       ! Beam Solar Day Schedule Name
  ,                                       ! Diffuse Solar Day Schedule Name
  0.452,                                  ! ASHRAE Taub {dimensionless}
  2.127;                                  ! ASHRAE Taud {dimensionless}

OS:ComponentData,
  {3a7f3879-7bd6-40b9-ad90-a4d96644fc19}, ! Handle
  Component Data 1,                       ! Name
  {e9a6697b-a938-46e7-80cc-a5cc35c59ac5}, ! UUID
  {fb2b4ae1-bfa0-45f9-8497-6a85c0f3e6ed}, ! Version UUID
  1366310579,                             ! Creation Timestamp
  1366310579,                             ! Version Timestamp
  {792ece27-4b46-46b3-98a7-c217dc4086d8}; ! Name of Object 1

