
OS:Version,
  {2bded2d6-6ddb-435c-89d2-803509e7bf35}, ! Handle
  0.9.3;                                  ! Version Identifier

OS:SizingPeriod:DesignDay,
  {798d3171-9781-4f61-ae1c-fd1b08fdd2d0}, ! Handle
  Burbank Glendale Passadena Ap Ann Clg 2% Condns Enth=>MDB, ! Name
  30.1,                                   ! Maximum Dry-Bulb Temperature {C}
  13.2,                                   ! Daily Dry-Bulb Temperature Range {deltaC}
  62700,                                  ! Humidity Indicating Conditions at Maximum Dry-Bulb {BasedOnField A3}
  98639,                                  ! Barometric Pressure {Pa}
  3.9,                                    ! Wind Speed {m/s}
  170,                                    ! Wind Direction {deg}
  0,                                      ! Sky Clearness
  0,                                      ! Rain Indicator
  0,                                      ! Snow Indicator
  21,                                     ! Day of Month
  8,                                      ! Month
  SummerDesignDay,                        ! Day Type
  0,                                      ! Daylight Saving Time Indicator
  Enthalpy,                               ! Humidity Indicating Type
  ,                                       ! Humidity Indicating Day Schedule Name
  DefaultMultipliers,                     ! Dry-Bulb Temperature Range Modifier Type
  ,                                       ! Dry-Bulb Temperature Range Modifier Schedule Name
  ASHRAETau,                              ! Solar Model Indicator
  ,                                       ! Beam Solar Day Schedule Name
  ,                                       ! Diffuse Solar Day Schedule Name
  0.436,                                  ! ASHRAE Taub {dimensionless}
  2.106;                                  ! ASHRAE Taud {dimensionless}

OS:ComponentData,
  {92078009-4923-42a8-a3cb-d4418d0024e4}, ! Handle
  Component Data 1,                       ! Name
  {d1fe6e79-fad1-4839-bdac-72b47b26a7d6}, ! UUID
  {68ef164b-ac4a-46af-98b0-3109ad09a12a}, ! Version UUID
  1366306394,                             ! Creation Timestamp
  1366306394,                             ! Version Timestamp
  {798d3171-9781-4f61-ae1c-fd1b08fdd2d0}; ! Name of Object 1

