
OS:Version,
  {774ca922-314c-4f7b-b8ef-4f64c9e522cf}, ! Handle
  0.9.3;                                  ! Version Identifier

OS:SizingPeriod:DesignDay,
  {f19cb449-767c-4859-b288-57b1d68bca7a}, ! Handle
  Bemidji Municipal Ann Clg .4% Condns DB=>MWB, ! Name
  31,                                     ! Maximum Dry-Bulb Temperature {C}
  10.7,                                   ! Daily Dry-Bulb Temperature Range {deltaC}
  21.6,                                   ! Humidity Indicating Conditions at Maximum Dry-Bulb {BasedOnField A3}
  96380,                                  ! Barometric Pressure {Pa}
  5.3,                                    ! Wind Speed {m/s}
  180,                                    ! Wind Direction {deg}
  0,                                      ! Sky Clearness
  0,                                      ! Rain Indicator
  0,                                      ! Snow Indicator
  21,                                     ! Day of Month
  7,                                      ! Month
  SummerDesignDay,                        ! Day Type
  0,                                      ! Daylight Saving Time Indicator
  Wetbulb,                                ! Humidity Indicating Type
  ,                                       ! Humidity Indicating Day Schedule Name
  DefaultMultipliers,                     ! Dry-Bulb Temperature Range Modifier Type
  ,                                       ! Dry-Bulb Temperature Range Modifier Schedule Name
  ASHRAETau,                              ! Solar Model Indicator
  ,                                       ! Beam Solar Day Schedule Name
  ,                                       ! Diffuse Solar Day Schedule Name
  0.389,                                  ! ASHRAE Taub {dimensionless}
  2.27;                                   ! ASHRAE Taud {dimensionless}

OS:ComponentData,
  {7dd6bd0d-6121-47ec-b22b-25ee4968e1f1}, ! Handle
  Component Data 1,                       ! Name
  {08c41677-f8f5-402e-a1fa-d58857fa8437}, ! UUID
  {0bdb63e1-54ec-466a-b742-23368554d2e8}, ! Version UUID
  1366308158,                             ! Creation Timestamp
  1366308158,                             ! Version Timestamp
  {f19cb449-767c-4859-b288-57b1d68bca7a}; ! Name of Object 1

