
OS:Version,
  {d5534047-b161-4771-941e-aa549252ae4e}, ! Handle
  0.9.3;                                  ! Version Identifier

OS:SizingPeriod:DesignDay,
  {27721964-fef7-4006-8f04-58611faf6423}, ! Handle
  Flying Cloud Ann Clg .4% Condns WB=>MDB, ! Name
  30.7,                                   ! Maximum Dry-Bulb Temperature {C}
  10.1,                                   ! Daily Dry-Bulb Temperature Range {deltaC}
  25.5,                                   ! Humidity Indicating Conditions at Maximum Dry-Bulb {BasedOnField A3}
  97971,                                  ! Barometric Pressure {Pa}
  5.3,                                    ! Wind Speed {m/s}
  180,                                    ! Wind Direction {deg}
  0,                                      ! Sky Clearness
  0,                                      ! Rain Indicator
  0,                                      ! Snow Indicator
  21,                                     ! Day of Month
  7,                                      ! Month
  SummerDesignDay,                        ! Day Type
  0,                                      ! Daylight Saving Time Indicator
  Wetbulb,                                ! Humidity Indicating Type
  ,                                       ! Humidity Indicating Day Schedule Name
  DefaultMultipliers,                     ! Dry-Bulb Temperature Range Modifier Type
  ,                                       ! Dry-Bulb Temperature Range Modifier Schedule Name
  ASHRAETau,                              ! Solar Model Indicator
  ,                                       ! Beam Solar Day Schedule Name
  ,                                       ! Diffuse Solar Day Schedule Name
  0.416,                                  ! ASHRAE Taub {dimensionless}
  2.176;                                  ! ASHRAE Taud {dimensionless}

OS:ComponentData,
  {2d9a3214-f621-42a8-80cc-9f24618afb9b}, ! Handle
  Component Data 1,                       ! Name
  {469d603e-3508-4147-b039-bdaf774aca67}, ! UUID
  {54eb16de-dbbc-4de6-bd61-2338d2442b90}, ! Version UUID
  1366308211,                             ! Creation Timestamp
  1366308211,                             ! Version Timestamp
  {27721964-fef7-4006-8f04-58611faf6423}; ! Name of Object 1

