
OS:Version,
  {bcfa8281-4ec5-41d6-8929-95be96e21b9e}, ! Handle
  0.9.3;                                  ! Version Identifier

OS:SizingPeriod:DesignDay,
  {cda8a09f-ea74-412f-b23b-e252e5b55014}, ! Handle
  Boston Ann Htg Wind 99% Condns WS=>MCDB, ! Name
  -0.3,                                   ! Maximum Dry-Bulb Temperature {C}
  0,                                      ! Daily Dry-Bulb Temperature Range {deltaC}
  -0.3,                                   ! Humidity Indicating Conditions at Maximum Dry-Bulb {BasedOnField A3}
  101253,                                 ! Barometric Pressure {Pa}
  12.6,                                   ! Wind Speed {m/s}
  320,                                    ! Wind Direction {deg}
  0,                                      ! Sky Clearness
  0,                                      ! Rain Indicator
  0,                                      ! Snow Indicator
  21,                                     ! Day of Month
  1,                                      ! Month
  WinterDesignDay,                        ! Day Type
  0,                                      ! Daylight Saving Time Indicator
  Wetbulb,                                ! Humidity Indicating Type
  ,                                       ! Humidity Indicating Day Schedule Name
  DefaultMultipliers,                     ! Dry-Bulb Temperature Range Modifier Type
  ,                                       ! Dry-Bulb Temperature Range Modifier Schedule Name
  ASHRAEClearSky;                         ! Solar Model Indicator

OS:ComponentData,
  {f63d1f0c-3094-449a-990f-133cb5f7bd4b}, ! Handle
  Component Data 1,                       ! Name
  {d9500df7-1a11-494a-a3eb-22c10ca68e0c}, ! UUID
  {00af83d3-cc32-4ec5-bec3-5994124e6bb8}, ! Version UUID
  1366307788,                             ! Creation Timestamp
  1366307788,                             ! Version Timestamp
  {cda8a09f-ea74-412f-b23b-e252e5b55014}; ! Name of Object 1

