
OS:Version,
  {8724b527-1a33-4676-a2f1-c804a3045dc2}, ! Handle
  0.9.3;                                  ! Version Identifier

OS:SizingPeriod:DesignDay,
  {1ddb9478-399e-4741-b154-1d21ac22ca48}, ! Handle
  Lubbock International Ap Ann Htg 99% Condns DB, ! Name
  -7.3,                                   ! Maximum Dry-Bulb Temperature {C}
  0,                                      ! Daily Dry-Bulb Temperature Range {deltaC}
  -7.3,                                   ! Humidity Indicating Conditions at Maximum Dry-Bulb {BasedOnField A3}
  89962,                                  ! Barometric Pressure {Pa}
  4.8,                                    ! Wind Speed {m/s}
  60,                                     ! Wind Direction {deg}
  0,                                      ! Sky Clearness
  0,                                      ! Rain Indicator
  0,                                      ! Snow Indicator
  21,                                     ! Day of Month
  12,                                     ! Month
  WinterDesignDay,                        ! Day Type
  0,                                      ! Daylight Saving Time Indicator
  Wetbulb,                                ! Humidity Indicating Type
  ,                                       ! Humidity Indicating Day Schedule Name
  DefaultMultipliers,                     ! Dry-Bulb Temperature Range Modifier Type
  ,                                       ! Dry-Bulb Temperature Range Modifier Schedule Name
  ASHRAEClearSky;                         ! Solar Model Indicator

OS:ComponentData,
  {f669767b-c692-4a63-984a-3322a5287278}, ! Handle
  Component Data 1,                       ! Name
  {58995760-ac7c-42c7-b722-2492c23fcb73}, ! UUID
  {5549ade4-7e98-4e70-a250-5c85b65aae84}, ! Version UUID
  1366310798,                             ! Creation Timestamp
  1366310798,                             ! Version Timestamp
  {1ddb9478-399e-4741-b154-1d21ac22ca48}; ! Name of Object 1

