
OS:Version,
  {71956be6-6aef-486f-b438-3b2213286ccf}, ! Handle
  0.9.3;                                  ! Version Identifier

OS:SizingPeriod:DesignDay,
  {5ea531bd-6e72-4173-8722-ce04df4ba3ab}, ! Handle
  Burlington Ann Clg 1% Condns DP=>MDB,   ! Name
  28.9,                                   ! Maximum Dry-Bulb Temperature {C}
  10.3,                                   ! Daily Dry-Bulb Temperature Range {deltaC}
  23.6,                                   ! Humidity Indicating Conditions at Maximum Dry-Bulb {BasedOnField A3}
  98792,                                  ! Barometric Pressure {Pa}
  4.5,                                    ! Wind Speed {m/s}
  200,                                    ! Wind Direction {deg}
  0,                                      ! Sky Clearness
  0,                                      ! Rain Indicator
  0,                                      ! Snow Indicator
  21,                                     ! Day of Month
  7,                                      ! Month
  SummerDesignDay,                        ! Day Type
  0,                                      ! Daylight Saving Time Indicator
  Dewpoint,                               ! Humidity Indicating Type
  ,                                       ! Humidity Indicating Day Schedule Name
  DefaultMultipliers,                     ! Dry-Bulb Temperature Range Modifier Type
  ,                                       ! Dry-Bulb Temperature Range Modifier Schedule Name
  ASHRAETau,                              ! Solar Model Indicator
  ,                                       ! Beam Solar Day Schedule Name
  ,                                       ! Diffuse Solar Day Schedule Name
  0.45,                                   ! ASHRAE Taub {dimensionless}
  2.07;                                   ! ASHRAE Taud {dimensionless}

OS:ComponentData,
  {34b6b0a0-3778-4581-b8e7-d0d39bf2e5b1}, ! Handle
  Component Data 1,                       ! Name
  {6b39316a-1e5a-4f3e-a36d-32f55ac88659}, ! UUID
  {5513ca0d-70d6-43fc-b1e6-b6b63fec4027}, ! Version UUID
  1366307140,                             ! Creation Timestamp
  1366307140,                             ! Version Timestamp
  {5ea531bd-6e72-4173-8722-ce04df4ba3ab}; ! Name of Object 1

