
OS:Version,
  {6bdd2548-595e-4a03-b1d8-7771bfccc5bb}, ! Handle
  0.9.3;                                  ! Version Identifier

OS:SizingPeriod:DesignDay,
  {bea9e8dd-ea9e-4a62-8d4f-140151bbf237}, ! Handle
  Galveston Scholes Ann Clg 1% Condns DB=>MWB, ! Name
  32.5,                                   ! Maximum Dry-Bulb Temperature {C}
  5.7,                                    ! Daily Dry-Bulb Temperature Range {deltaC}
  25.9,                                   ! Humidity Indicating Conditions at Maximum Dry-Bulb {BasedOnField A3}
  101133,                                 ! Barometric Pressure {Pa}
  5.2,                                    ! Wind Speed {m/s}
  180,                                    ! Wind Direction {deg}
  0,                                      ! Sky Clearness
  0,                                      ! Rain Indicator
  0,                                      ! Snow Indicator
  21,                                     ! Day of Month
  8,                                      ! Month
  SummerDesignDay,                        ! Day Type
  0,                                      ! Daylight Saving Time Indicator
  Wetbulb,                                ! Humidity Indicating Type
  ,                                       ! Humidity Indicating Day Schedule Name
  DefaultMultipliers,                     ! Dry-Bulb Temperature Range Modifier Type
  ,                                       ! Dry-Bulb Temperature Range Modifier Schedule Name
  ASHRAETau,                              ! Solar Model Indicator
  ,                                       ! Beam Solar Day Schedule Name
  ,                                       ! Diffuse Solar Day Schedule Name
  0.503,                                  ! ASHRAE Taub {dimensionless}
  1.974;                                  ! ASHRAE Taud {dimensionless}

OS:ComponentData,
  {7469ddb7-e6ff-447d-b4b4-e8f250ded4ae}, ! Handle
  Component Data 1,                       ! Name
  {fe2d66bd-028a-465a-90b1-3add90e9a3cd}, ! UUID
  {6c6802cf-e786-4411-860a-ef8702c612c3}, ! Version UUID
  1366310718,                             ! Creation Timestamp
  1366310718,                             ! Version Timestamp
  {bea9e8dd-ea9e-4a62-8d4f-140151bbf237}; ! Name of Object 1

