
OS:Version,
  {c636e7df-36a7-4157-8995-4998124b596a}, ! Handle
  0.9.3;                                  ! Version Identifier

OS:SizingPeriod:DesignDay,
  {401d9304-019a-49b1-b5f2-f64df07091c9}, ! Handle
  Beale Afb Ann Clg .4% Condns Enth=>MDB, ! Name
  35.6,                                   ! Maximum Dry-Bulb Temperature {C}
  16.6,                                   ! Daily Dry-Bulb Temperature Range {deltaC}
  67400,                                  ! Humidity Indicating Conditions at Maximum Dry-Bulb {BasedOnField A3}
  100869,                                 ! Barometric Pressure {Pa}
  2.4,                                    ! Wind Speed {m/s}
  200,                                    ! Wind Direction {deg}
  0,                                      ! Sky Clearness
  0,                                      ! Rain Indicator
  0,                                      ! Snow Indicator
  21,                                     ! Day of Month
  7,                                      ! Month
  SummerDesignDay,                        ! Day Type
  0,                                      ! Daylight Saving Time Indicator
  Enthalpy,                               ! Humidity Indicating Type
  ,                                       ! Humidity Indicating Day Schedule Name
  DefaultMultipliers,                     ! Dry-Bulb Temperature Range Modifier Type
  ,                                       ! Dry-Bulb Temperature Range Modifier Schedule Name
  ASHRAETau,                              ! Solar Model Indicator
  ,                                       ! Beam Solar Day Schedule Name
  ,                                       ! Diffuse Solar Day Schedule Name
  0.381,                                  ! ASHRAE Taub {dimensionless}
  2.368;                                  ! ASHRAE Taud {dimensionless}

OS:ComponentData,
  {73f96896-d086-4ad5-b26e-a3cdbe1fd660}, ! Handle
  Component Data 1,                       ! Name
  {c9769621-6cbd-4097-8628-cd3c78baa1b2}, ! UUID
  {fc51524c-0cba-4d61-a7c9-1e4248a99f42}, ! Version UUID
  1366306380,                             ! Creation Timestamp
  1366306380,                             ! Version Timestamp
  {401d9304-019a-49b1-b5f2-f64df07091c9}; ! Name of Object 1

