
OS:Version,
  {f6039ad9-2b85-4044-9f2a-133a5d90dc3d}, ! Handle
  0.9.3;                                  ! Version Identifier

OS:SizingPeriod:DesignDay,
  {57900624-4009-4bb3-8bfe-2899dfc0cd81}, ! Handle
  Jacksonville Intl Arpt Ann Clg .4% Condns DB=>MWB, ! Name
  34.7,                                   ! Maximum Dry-Bulb Temperature {C}
  10,                                     ! Daily Dry-Bulb Temperature Range {deltaC}
  25.2,                                   ! Humidity Indicating Conditions at Maximum Dry-Bulb {BasedOnField A3}
  101229,                                 ! Barometric Pressure {Pa}
  3.6,                                    ! Wind Speed {m/s}
  260,                                    ! Wind Direction {deg}
  0,                                      ! Sky Clearness
  0,                                      ! Rain Indicator
  0,                                      ! Snow Indicator
  21,                                     ! Day of Month
  7,                                      ! Month
  SummerDesignDay,                        ! Day Type
  0,                                      ! Daylight Saving Time Indicator
  Wetbulb,                                ! Humidity Indicating Type
  ,                                       ! Humidity Indicating Day Schedule Name
  DefaultMultipliers,                     ! Dry-Bulb Temperature Range Modifier Type
  ,                                       ! Dry-Bulb Temperature Range Modifier Schedule Name
  ASHRAETau,                              ! Solar Model Indicator
  ,                                       ! Beam Solar Day Schedule Name
  ,                                       ! Diffuse Solar Day Schedule Name
  0.541,                                  ! ASHRAE Taub {dimensionless}
  1.863;                                  ! ASHRAE Taud {dimensionless}

OS:ComponentData,
  {78f1221d-811a-4da4-bd1f-ab4c08cbe8f3}, ! Handle
  Component Data 1,                       ! Name
  {e821f566-249f-4bd1-98e0-c9221abbd505}, ! UUID
  {c6cf8d2f-e333-4a84-883d-ee0caad90b39}, ! Version UUID
  1366306822,                             ! Creation Timestamp
  1366306822,                             ! Version Timestamp
  {57900624-4009-4bb3-8bfe-2899dfc0cd81}; ! Name of Object 1

