
OS:Version,
  {bb7340c8-2015-4981-bc89-0de609ba6050}, ! Handle
  0.9.3;                                  ! Version Identifier

OS:SizingPeriod:DesignDay,
  {eb2130a5-2bbe-4f6b-b329-e10c97bf3c1a}, ! Handle
  Grand Canyon Natl P Ann Htg Wind 99% Condns WS=>MCDB, ! Name
  4,                                      ! Maximum Dry-Bulb Temperature {C}
  0,                                      ! Daily Dry-Bulb Temperature Range {deltaC}
  4,                                      ! Humidity Indicating Conditions at Maximum Dry-Bulb {BasedOnField A3}
  78856,                                  ! Barometric Pressure {Pa}
  9.9,                                    ! Wind Speed {m/s}
  40,                                     ! Wind Direction {deg}
  0,                                      ! Sky Clearness
  0,                                      ! Rain Indicator
  0,                                      ! Snow Indicator
  21,                                     ! Day of Month
  12,                                     ! Month
  WinterDesignDay,                        ! Day Type
  0,                                      ! Daylight Saving Time Indicator
  Wetbulb,                                ! Humidity Indicating Type
  ,                                       ! Humidity Indicating Day Schedule Name
  DefaultMultipliers,                     ! Dry-Bulb Temperature Range Modifier Type
  ,                                       ! Dry-Bulb Temperature Range Modifier Schedule Name
  ASHRAEClearSky;                         ! Solar Model Indicator

