
OS:Version,
  {d1aafb9b-e0c5-44e1-b6ba-8ebbac6fb1e7}, ! Handle
  0.9.3;                                  ! Version Identifier

OS:SizingPeriod:DesignDay,
  {80ac18b2-3df6-4702-8da9-46a09130c438}, ! Handle
  Crescent City Faa Ai Ann Clg 1% Condns Enth=>MDB, ! Name
  17.9,                                   ! Maximum Dry-Bulb Temperature {C}
  5.7,                                    ! Daily Dry-Bulb Temperature Range {deltaC}
  42900,                                  ! Humidity Indicating Conditions at Maximum Dry-Bulb {BasedOnField A3}
  101121,                                 ! Barometric Pressure {Pa}
  3.9,                                    ! Wind Speed {m/s}
  310,                                    ! Wind Direction {deg}
  0,                                      ! Sky Clearness
  0,                                      ! Rain Indicator
  0,                                      ! Snow Indicator
  21,                                     ! Day of Month
  8,                                      ! Month
  SummerDesignDay,                        ! Day Type
  0,                                      ! Daylight Saving Time Indicator
  Enthalpy,                               ! Humidity Indicating Type
  ,                                       ! Humidity Indicating Day Schedule Name
  DefaultMultipliers,                     ! Dry-Bulb Temperature Range Modifier Type
  ,                                       ! Dry-Bulb Temperature Range Modifier Schedule Name
  ASHRAETau,                              ! Solar Model Indicator
  ,                                       ! Beam Solar Day Schedule Name
  ,                                       ! Diffuse Solar Day Schedule Name
  0.362,                                  ! ASHRAE Taub {dimensionless}
  2.529;                                  ! ASHRAE Taud {dimensionless}

