
OS:Version,
  {94dedc8e-4ac4-47d1-8ba1-d34f57c62e4b}, ! Handle
  0.9.3;                                  ! Version Identifier

OS:SizingPeriod:DesignDay,
  {2b376dc1-59d6-40bd-a668-ef5e83944a82}, ! Handle
  La Junta Municipal Ap Ann Clg .4% Condns DP=>MDB, ! Name
  21.7,                                   ! Maximum Dry-Bulb Temperature {C}
  16.5,                                   ! Daily Dry-Bulb Temperature Range {deltaC}
  17.8,                                   ! Humidity Indicating Conditions at Maximum Dry-Bulb {BasedOnField A3}
  86853,                                  ! Barometric Pressure {Pa}
  4.9,                                    ! Wind Speed {m/s}
  140,                                    ! Wind Direction {deg}
  0,                                      ! Sky Clearness
  0,                                      ! Rain Indicator
  0,                                      ! Snow Indicator
  21,                                     ! Day of Month
  7,                                      ! Month
  SummerDesignDay,                        ! Day Type
  0,                                      ! Daylight Saving Time Indicator
  Dewpoint,                               ! Humidity Indicating Type
  ,                                       ! Humidity Indicating Day Schedule Name
  DefaultMultipliers,                     ! Dry-Bulb Temperature Range Modifier Type
  ,                                       ! Dry-Bulb Temperature Range Modifier Schedule Name
  ASHRAETau,                              ! Solar Model Indicator
  ,                                       ! Beam Solar Day Schedule Name
  ,                                       ! Diffuse Solar Day Schedule Name
  0.435,                                  ! ASHRAE Taub {dimensionless}
  1.974;                                  ! ASHRAE Taud {dimensionless}

