
OS:Version,
  {502d2851-7c09-4271-9eea-c85dc66c1aa4}, ! Handle
  0.9.3;                                  ! Version Identifier

OS:SizingPeriod:DesignDay,
  {f937ab18-2957-48fa-a134-be477dfcc397}, ! Handle
  Goodland Ann Clg 2% Condns WB=>MDB,     ! Name
  29.2,                                   ! Maximum Dry-Bulb Temperature {C}
  15,                                     ! Daily Dry-Bulb Temperature Range {deltaC}
  20.4,                                   ! Humidity Indicating Conditions at Maximum Dry-Bulb {BasedOnField A3}
  88531,                                  ! Barometric Pressure {Pa}
  6,                                      ! Wind Speed {m/s}
  160,                                    ! Wind Direction {deg}
  0,                                      ! Sky Clearness
  0,                                      ! Rain Indicator
  0,                                      ! Snow Indicator
  21,                                     ! Day of Month
  7,                                      ! Month
  SummerDesignDay,                        ! Day Type
  0,                                      ! Daylight Saving Time Indicator
  Wetbulb,                                ! Humidity Indicating Type
  ,                                       ! Humidity Indicating Day Schedule Name
  DefaultMultipliers,                     ! Dry-Bulb Temperature Range Modifier Type
  ,                                       ! Dry-Bulb Temperature Range Modifier Schedule Name
  ASHRAETau,                              ! Solar Model Indicator
  ,                                       ! Beam Solar Day Schedule Name
  ,                                       ! Diffuse Solar Day Schedule Name
  0.421,                                  ! ASHRAE Taub {dimensionless}
  2.065;                                  ! ASHRAE Taud {dimensionless}

OS:ComponentData,
  {9a608cdb-a264-4095-9cfa-54b9b1c70437}, ! Handle
  Component Data 1,                       ! Name
  {d3e9bc8b-7f5d-47c3-91d8-404f68b70072}, ! UUID
  {a89fa85d-dbc3-450e-b356-e88c67e2e13a}, ! Version UUID
  1366307530,                             ! Creation Timestamp
  1366307530,                             ! Version Timestamp
  {f937ab18-2957-48fa-a134-be477dfcc397}; ! Name of Object 1

