
OS:Version,
  {cdf90c87-2899-43ca-8007-b132e6429e63}, ! Handle
  0.9.3;                                  ! Version Identifier

OS:SizingPeriod:DesignDay,
  {3e951b07-74ff-42a5-b1fd-0de0907e189b}, ! Handle
  Camp Pendleton Mcas Ann Hum_n 99.6% Condns DP=>MCDB, ! Name
  12.6,                                   ! Maximum Dry-Bulb Temperature {C}
  0,                                      ! Daily Dry-Bulb Temperature Range {deltaC}
  -10.5,                                  ! Humidity Indicating Conditions at Maximum Dry-Bulb {BasedOnField A3}
  101049,                                 ! Barometric Pressure {Pa}
  0.4,                                    ! Wind Speed {m/s}
  10,                                     ! Wind Direction {deg}
  0,                                      ! Sky Clearness
  0,                                      ! Rain Indicator
  0,                                      ! Snow Indicator
  21,                                     ! Day of Month
  12,                                     ! Month
  WinterDesignDay,                        ! Day Type
  0,                                      ! Daylight Saving Time Indicator
  Dewpoint,                               ! Humidity Indicating Type
  ,                                       ! Humidity Indicating Day Schedule Name
  DefaultMultipliers,                     ! Dry-Bulb Temperature Range Modifier Type
  ,                                       ! Dry-Bulb Temperature Range Modifier Schedule Name
  ASHRAEClearSky;                         ! Solar Model Indicator

OS:ComponentData,
  {35f7c3ed-a77c-4830-a6bb-336b7470ce5e}, ! Handle
  Component Data 1,                       ! Name
  {96991a93-9482-4595-8880-30d5297fba41}, ! UUID
  {53402ecc-76e3-4b0f-98cf-be33d8eaa43b}, ! Version UUID
  1366306398,                             ! Creation Timestamp
  1366306398,                             ! Version Timestamp
  {3e951b07-74ff-42a5-b1fd-0de0907e189b}; ! Name of Object 1

