
OS:Version,
  {ca687ddc-9718-4708-a0bc-5d01cf8b3647}, ! Handle
  0.9.3;                                  ! Version Identifier

OS:SizingPeriod:DesignDay,
  {48245080-69de-48ff-92ad-15a9e1dd1235}, ! Handle
  Chicago Midway Ap Ann Clg .4% Condns DB=>MWB, ! Name
  33.4,                                   ! Maximum Dry-Bulb Temperature {C}
  8.8,                                    ! Daily Dry-Bulb Temperature Range {deltaC}
  23.8,                                   ! Humidity Indicating Conditions at Maximum Dry-Bulb {BasedOnField A3}
  99110,                                  ! Barometric Pressure {Pa}
  5.6,                                    ! Wind Speed {m/s}
  220,                                    ! Wind Direction {deg}
  0,                                      ! Sky Clearness
  0,                                      ! Rain Indicator
  0,                                      ! Snow Indicator
  21,                                     ! Day of Month
  7,                                      ! Month
  SummerDesignDay,                        ! Day Type
  0,                                      ! Daylight Saving Time Indicator
  Wetbulb,                                ! Humidity Indicating Type
  ,                                       ! Humidity Indicating Day Schedule Name
  DefaultMultipliers,                     ! Dry-Bulb Temperature Range Modifier Type
  ,                                       ! Dry-Bulb Temperature Range Modifier Schedule Name
  ASHRAETau,                              ! Solar Model Indicator
  ,                                       ! Beam Solar Day Schedule Name
  ,                                       ! Diffuse Solar Day Schedule Name
  0.457,                                  ! ASHRAE Taub {dimensionless}
  2.043;                                  ! ASHRAE Taud {dimensionless}

OS:ComponentData,
  {8502e2cc-94f4-41cb-8959-23bfe57caedc}, ! Handle
  Component Data 1,                       ! Name
  {5552fe8b-8c22-414a-a369-cb2e1b959b2c}, ! UUID
  {e463bf7c-5139-48b5-a579-c00ac62adc79}, ! Version UUID
  1366307342,                             ! Creation Timestamp
  1366307342,                             ! Version Timestamp
  {48245080-69de-48ff-92ad-15a9e1dd1235}; ! Name of Object 1

