
OS:Version,
  {bf39475e-d0e4-4f4d-8469-354624dd1382}, ! Handle
  0.9.3;                                  ! Version Identifier

OS:SizingPeriod:DesignDay,
  {85844a0a-e18a-47b7-ae4d-5db66b5f0e3f}, ! Handle
  Dallas Love Field Ann Clg 2% Condns DP=>MDB, ! Name
  28.4,                                   ! Maximum Dry-Bulb Temperature {C}
  10.1,                                   ! Daily Dry-Bulb Temperature Range {deltaC}
  23.2,                                   ! Humidity Indicating Conditions at Maximum Dry-Bulb {BasedOnField A3}
  99726,                                  ! Barometric Pressure {Pa}
  3.9,                                    ! Wind Speed {m/s}
  180,                                    ! Wind Direction {deg}
  0,                                      ! Sky Clearness
  0,                                      ! Rain Indicator
  0,                                      ! Snow Indicator
  21,                                     ! Day of Month
  8,                                      ! Month
  SummerDesignDay,                        ! Day Type
  0,                                      ! Daylight Saving Time Indicator
  Dewpoint,                               ! Humidity Indicating Type
  ,                                       ! Humidity Indicating Day Schedule Name
  DefaultMultipliers,                     ! Dry-Bulb Temperature Range Modifier Type
  ,                                       ! Dry-Bulb Temperature Range Modifier Schedule Name
  ASHRAETau,                              ! Solar Model Indicator
  ,                                       ! Beam Solar Day Schedule Name
  ,                                       ! Diffuse Solar Day Schedule Name
  0.478,                                  ! ASHRAE Taub {dimensionless}
  2.02;                                   ! ASHRAE Taud {dimensionless}

OS:ComponentData,
  {54faf2a9-52d2-4245-94b0-4b56484ee7c4}, ! Handle
  Component Data 1,                       ! Name
  {700522e9-1710-4fb5-8a34-874087031ec1}, ! UUID
  {d2c4d6be-0e9a-4b56-a0e9-4009455246f8}, ! Version UUID
  1366310660,                             ! Creation Timestamp
  1366310660,                             ! Version Timestamp
  {85844a0a-e18a-47b7-ae4d-5db66b5f0e3f}; ! Name of Object 1

