
OS:Version,
  {790f9b94-49e7-47fb-8042-5051695c8d54}, ! Handle
  0.9.3;                                  ! Version Identifier

OS:SizingPeriod:DesignDay,
  {a7806a6c-c2bd-42a5-9b3d-5826147b8b96}, ! Handle
  COLD_BAY Ann Htg 99.6% Condns DB,       ! Name
  -12.7,                                  ! Maximum Dry-Bulb Temperature {C}
  0,                                      ! Daily Dry-Bulb Temperature Range {deltaC}
  -12.7,                                  ! Humidity Indicating Conditions at Maximum Dry-Bulb {BasedOnField A3}
  100977,                                 ! Barometric Pressure {Pa}
  6.4,                                    ! Wind Speed {m/s}
  330,                                    ! Wind Direction {deg}
  0,                                      ! Sky Clearness
  0,                                      ! Rain Indicator
  0,                                      ! Snow Indicator
  21,                                     ! Day of Month
  1,                                      ! Month
  WinterDesignDay,                        ! Day Type
  0,                                      ! Daylight Saving Time Indicator
  Wetbulb,                                ! Humidity Indicating Type
  ,                                       ! Humidity Indicating Day Schedule Name
  DefaultMultipliers,                     ! Dry-Bulb Temperature Range Modifier Type
  ,                                       ! Dry-Bulb Temperature Range Modifier Schedule Name
  ASHRAEClearSky;                         ! Solar Model Indicator

