
OS:Version,
  {df834eab-3453-40ea-a75e-30e59a6a1a86}, ! Handle
  0.9.3;                                  ! Version Identifier

OS:SizingPeriod:DesignDay,
  {dc410caf-46bb-4379-a0b6-170ec9b87a19}, ! Handle
  Little Rock Afb Ann Clg 2% Condns DP=>MDB, ! Name
  28.8,                                   ! Maximum Dry-Bulb Temperature {C}
  11.1,                                   ! Daily Dry-Bulb Temperature Range {deltaC}
  24.6,                                   ! Humidity Indicating Conditions at Maximum Dry-Bulb {BasedOnField A3}
  100094,                                 ! Barometric Pressure {Pa}
  3.5,                                    ! Wind Speed {m/s}
  190,                                    ! Wind Direction {deg}
  0,                                      ! Sky Clearness
  0,                                      ! Rain Indicator
  0,                                      ! Snow Indicator
  21,                                     ! Day of Month
  7,                                      ! Month
  SummerDesignDay,                        ! Day Type
  0,                                      ! Daylight Saving Time Indicator
  Dewpoint,                               ! Humidity Indicating Type
  ,                                       ! Humidity Indicating Day Schedule Name
  DefaultMultipliers,                     ! Dry-Bulb Temperature Range Modifier Type
  ,                                       ! Dry-Bulb Temperature Range Modifier Schedule Name
  ASHRAETau,                              ! Solar Model Indicator
  ,                                       ! Beam Solar Day Schedule Name
  ,                                       ! Diffuse Solar Day Schedule Name
  0.512,                                  ! ASHRAE Taub {dimensionless}
  1.909;                                  ! ASHRAE Taud {dimensionless}

OS:ComponentData,
  {6ec92229-cd1e-42ef-a685-a1b9492755d3}, ! Handle
  Component Data 1,                       ! Name
  {d4883ba6-1679-42ee-9d55-e2aa5e8fc139}, ! UUID
  {b1711e4c-34bb-45ee-8891-ff591695d7db}, ! Version UUID
  1366306236,                             ! Creation Timestamp
  1366306236,                             ! Version Timestamp
  {dc410caf-46bb-4379-a0b6-170ec9b87a19}; ! Name of Object 1

