
OS:Version,
  {1460da54-d55e-40c2-ae78-3f125413cf8e}, ! Handle
  0.9.3;                                  ! Version Identifier

OS:SizingPeriod:DesignDay,
  {748d7f6e-e84b-407c-a37e-14aec2b4c150}, ! Handle
  HUNTSVILLE Ann Clg 2% Condns Enth=>MDB, ! Name
  30,                                     ! Maximum Dry-Bulb Temperature {C}
  10.4,                                   ! Daily Dry-Bulb Temperature Range {deltaC}
  75600,                                  ! Humidity Indicating Conditions at Maximum Dry-Bulb {BasedOnField A3}
  99063,                                  ! Barometric Pressure {Pa}
  3.6,                                    ! Wind Speed {m/s}
  270,                                    ! Wind Direction {deg}
  0,                                      ! Sky Clearness
  0,                                      ! Rain Indicator
  0,                                      ! Snow Indicator
  21,                                     ! Day of Month
  7,                                      ! Month
  SummerDesignDay,                        ! Day Type
  0,                                      ! Daylight Saving Time Indicator
  Enthalpy,                               ! Humidity Indicating Type
  ,                                       ! Humidity Indicating Day Schedule Name
  DefaultMultipliers,                     ! Dry-Bulb Temperature Range Modifier Type
  ,                                       ! Dry-Bulb Temperature Range Modifier Schedule Name
  ASHRAETau,                              ! Solar Model Indicator
  ,                                       ! Beam Solar Day Schedule Name
  ,                                       ! Diffuse Solar Day Schedule Name
  0.552,                                  ! ASHRAE Taub {dimensionless}
  1.785;                                  ! ASHRAE Taud {dimensionless}

OS:ComponentData,
  {c4740a5f-07f2-4271-8113-9f6d2e5d3858}, ! Handle
  Component Data 1,                       ! Name
  {dd46297d-3f53-4916-99d6-ff7deec0cbd6}, ! UUID
  {006a5f3d-4bb8-4286-af72-12db8c7c806a}, ! Version UUID
  1366305668,                             ! Creation Timestamp
  1366305668,                             ! Version Timestamp
  {748d7f6e-e84b-407c-a37e-14aec2b4c150}; ! Name of Object 1

