
OS:Version,
  {686c1723-ede7-4f98-8d86-77298f63d2d5}, ! Handle
  0.9.3;                                  ! Version Identifier

OS:SizingPeriod:DesignDay,
  {e1451b5b-548a-4ff5-841a-46eb7814484e}, ! Handle
  Lawrence Muni Ann Htg Wind 99% Condns WS=>MCDB, ! Name
  -4.2,                                   ! Maximum Dry-Bulb Temperature {C}
  0,                                      ! Daily Dry-Bulb Temperature Range {deltaC}
  -4.2,                                   ! Humidity Indicating Conditions at Maximum Dry-Bulb {BasedOnField A3}
  100774,                                 ! Barometric Pressure {Pa}
  9.1,                                    ! Wind Speed {m/s}
  300,                                    ! Wind Direction {deg}
  0,                                      ! Sky Clearness
  0,                                      ! Rain Indicator
  0,                                      ! Snow Indicator
  21,                                     ! Day of Month
  1,                                      ! Month
  WinterDesignDay,                        ! Day Type
  0,                                      ! Daylight Saving Time Indicator
  Wetbulb,                                ! Humidity Indicating Type
  ,                                       ! Humidity Indicating Day Schedule Name
  DefaultMultipliers,                     ! Dry-Bulb Temperature Range Modifier Type
  ,                                       ! Dry-Bulb Temperature Range Modifier Schedule Name
  ASHRAEClearSky;                         ! Solar Model Indicator

OS:ComponentData,
  {18999e98-e544-4a00-8677-e56c87c6e2f6}, ! Handle
  Component Data 1,                       ! Name
  {226b75c2-e381-4945-ae27-57ef95948295}, ! UUID
  {024da368-9b7b-4a73-93f0-57045fb4854d}, ! Version UUID
  1366307797,                             ! Creation Timestamp
  1366307797,                             ! Version Timestamp
  {e1451b5b-548a-4ff5-841a-46eb7814484e}; ! Name of Object 1

