
OS:Version,
  {33eba675-e52d-4ce8-a4de-26122c2df702}, ! Handle
  0.9.3;                                  ! Version Identifier

OS:SizingPeriod:DesignDay,
  {4a25287d-9733-4acf-9650-9923ce19237d}, ! Handle
  Dillant Hopkins Ann Clg .4% Condns DB=>MWB, ! Name
  31.3,                                   ! Maximum Dry-Bulb Temperature {C}
  12.2,                                   ! Daily Dry-Bulb Temperature Range {deltaC}
  21.6,                                   ! Humidity Indicating Conditions at Maximum Dry-Bulb {BasedOnField A3}
  99500,                                  ! Barometric Pressure {Pa}
  3.5,                                    ! Wind Speed {m/s}
  220,                                    ! Wind Direction {deg}
  0,                                      ! Sky Clearness
  0,                                      ! Rain Indicator
  0,                                      ! Snow Indicator
  21,                                     ! Day of Month
  7,                                      ! Month
  SummerDesignDay,                        ! Day Type
  0,                                      ! Daylight Saving Time Indicator
  Wetbulb,                                ! Humidity Indicating Type
  ,                                       ! Humidity Indicating Day Schedule Name
  DefaultMultipliers,                     ! Dry-Bulb Temperature Range Modifier Type
  ,                                       ! Dry-Bulb Temperature Range Modifier Schedule Name
  ASHRAETau,                              ! Solar Model Indicator
  ,                                       ! Beam Solar Day Schedule Name
  ,                                       ! Diffuse Solar Day Schedule Name
  0.454,                                  ! ASHRAE Taub {dimensionless}
  2.041;                                  ! ASHRAE Taud {dimensionless}

OS:ComponentData,
  {4466063e-77fa-4b1a-b1c4-fa21231bbeb2}, ! Handle
  Component Data 1,                       ! Name
  {6d92d233-3fde-412d-b572-d1a86cede324}, ! UUID
  {87f4aeea-70ad-4e34-8f76-91ccd0b81d2c}, ! Version UUID
  1366309236,                             ! Creation Timestamp
  1366309236,                             ! Version Timestamp
  {4a25287d-9733-4acf-9650-9923ce19237d}; ! Name of Object 1

