
OS:Version,
  {e1254537-9609-4ede-899d-81e0fd5ca3c8}, ! Handle
  0.9.3;                                  ! Version Identifier

OS:SizingPeriod:DesignDay,
  {96434f00-359d-45bf-b7b6-c43999046bf7}, ! Handle
  Detroit City Airport Ann Clg 1% Condns WB=>MDB, ! Name
  29,                                     ! Maximum Dry-Bulb Temperature {C}
  9.7,                                    ! Daily Dry-Bulb Temperature Range {deltaC}
  23.9,                                   ! Humidity Indicating Conditions at Maximum Dry-Bulb {BasedOnField A3}
  99063,                                  ! Barometric Pressure {Pa}
  5,                                      ! Wind Speed {m/s}
  230,                                    ! Wind Direction {deg}
  0,                                      ! Sky Clearness
  0,                                      ! Rain Indicator
  0,                                      ! Snow Indicator
  21,                                     ! Day of Month
  7,                                      ! Month
  SummerDesignDay,                        ! Day Type
  0,                                      ! Daylight Saving Time Indicator
  Wetbulb,                                ! Humidity Indicating Type
  ,                                       ! Humidity Indicating Day Schedule Name
  DefaultMultipliers,                     ! Dry-Bulb Temperature Range Modifier Type
  ,                                       ! Dry-Bulb Temperature Range Modifier Schedule Name
  ASHRAETau,                              ! Solar Model Indicator
  ,                                       ! Beam Solar Day Schedule Name
  ,                                       ! Diffuse Solar Day Schedule Name
  0.481,                                  ! ASHRAE Taub {dimensionless}
  1.939;                                  ! ASHRAE Taud {dimensionless}

OS:ComponentData,
  {57dfa83a-af44-4587-8b34-449118884bed}, ! Handle
  Component Data 1,                       ! Name
  {1cdf80bc-d11b-466f-ab26-c425b02579cb}, ! UUID
  {631d48a2-5367-4fb3-9bf1-12b97e89bfc3}, ! Version UUID
  1366307977,                             ! Creation Timestamp
  1366307977,                             ! Version Timestamp
  {96434f00-359d-45bf-b7b6-c43999046bf7}; ! Name of Object 1

