
OS:Version,
  {1241ef4e-f5d8-47e3-a008-dc08baad11b2}, ! Handle
  0.9.3;                                  ! Version Identifier

OS:SizingPeriod:DesignDay,
  {1638e67f-7364-42cb-8feb-9557aa4d9e4f}, ! Handle
  Cincinnati Northern Ky Ap Ann Hum_n 99% Condns DP=>MCDB, ! Name
  -11.2,                                  ! Maximum Dry-Bulb Temperature {C}
  0,                                      ! Daily Dry-Bulb Temperature Range {deltaC}
  -17.4,                                  ! Humidity Indicating Conditions at Maximum Dry-Bulb {BasedOnField A3}
  98182,                                  ! Barometric Pressure {Pa}
  3.8,                                    ! Wind Speed {m/s}
  280,                                    ! Wind Direction {deg}
  0,                                      ! Sky Clearness
  0,                                      ! Rain Indicator
  0,                                      ! Snow Indicator
  21,                                     ! Day of Month
  1,                                      ! Month
  WinterDesignDay,                        ! Day Type
  0,                                      ! Daylight Saving Time Indicator
  Dewpoint,                               ! Humidity Indicating Type
  ,                                       ! Humidity Indicating Day Schedule Name
  DefaultMultipliers,                     ! Dry-Bulb Temperature Range Modifier Type
  ,                                       ! Dry-Bulb Temperature Range Modifier Schedule Name
  ASHRAEClearSky;                         ! Solar Model Indicator

OS:ComponentData,
  {ec3f4ffc-d017-4043-a829-fc985e639f6d}, ! Handle
  Component Data 1,                       ! Name
  {2dfea547-d44f-41ad-82f4-7792967dbb2b}, ! UUID
  {00668ec2-ad68-4d81-890e-3182eae9fd16}, ! Version UUID
  1366307621,                             ! Creation Timestamp
  1366307621,                             ! Version Timestamp
  {1638e67f-7364-42cb-8feb-9557aa4d9e4f}; ! Name of Object 1

