
OS:Version,
  {1f5901b3-2db7-4e81-ae31-710d679e1062}, ! Handle
  0.9.3;                                  ! Version Identifier

OS:SizingPeriod:DesignDay,
  {3253d8a7-d25a-4b18-9a63-79aad8b3fb24}, ! Handle
  Lamar Municipal Ann Clg 1% Condns DB=>MWB, ! Name
  36.4,                                   ! Maximum Dry-Bulb Temperature {C}
  16.8,                                   ! Daily Dry-Bulb Temperature Range {deltaC}
  19.1,                                   ! Humidity Indicating Conditions at Maximum Dry-Bulb {BasedOnField A3}
  88477,                                  ! Barometric Pressure {Pa}
  5.8,                                    ! Wind Speed {m/s}
  180,                                    ! Wind Direction {deg}
  0,                                      ! Sky Clearness
  0,                                      ! Rain Indicator
  0,                                      ! Snow Indicator
  21,                                     ! Day of Month
  7,                                      ! Month
  SummerDesignDay,                        ! Day Type
  0,                                      ! Daylight Saving Time Indicator
  Wetbulb,                                ! Humidity Indicating Type
  ,                                       ! Humidity Indicating Day Schedule Name
  DefaultMultipliers,                     ! Dry-Bulb Temperature Range Modifier Type
  ,                                       ! Dry-Bulb Temperature Range Modifier Schedule Name
  ASHRAETau,                              ! Solar Model Indicator
  ,                                       ! Beam Solar Day Schedule Name
  ,                                       ! Diffuse Solar Day Schedule Name
  0.438,                                  ! ASHRAE Taub {dimensionless}
  1.984;                                  ! ASHRAE Taud {dimensionless}

