
OS:Version,
  {391b51c1-6fe9-4cde-9bb0-1aec489e89c1}, ! Handle
  0.9.3;                                  ! Version Identifier

OS:SizingPeriod:DesignDay,
  {e6cde028-c0a9-468c-88dc-6ba81fcdf571}, ! Handle
  Chippewa Co Intl Ann Clg 1% Condns DP=>MDB, ! Name
  23.3,                                   ! Maximum Dry-Bulb Temperature {C}
  10.6,                                   ! Daily Dry-Bulb Temperature Range {deltaC}
  19,                                     ! Humidity Indicating Conditions at Maximum Dry-Bulb {BasedOnField A3}
  98358,                                  ! Barometric Pressure {Pa}
  4.1,                                    ! Wind Speed {m/s}
  240,                                    ! Wind Direction {deg}
  0,                                      ! Sky Clearness
  0,                                      ! Rain Indicator
  0,                                      ! Snow Indicator
  21,                                     ! Day of Month
  7,                                      ! Month
  SummerDesignDay,                        ! Day Type
  0,                                      ! Daylight Saving Time Indicator
  Dewpoint,                               ! Humidity Indicating Type
  ,                                       ! Humidity Indicating Day Schedule Name
  DefaultMultipliers,                     ! Dry-Bulb Temperature Range Modifier Type
  ,                                       ! Dry-Bulb Temperature Range Modifier Schedule Name
  ASHRAETau,                              ! Solar Model Indicator
  ,                                       ! Beam Solar Day Schedule Name
  ,                                       ! Diffuse Solar Day Schedule Name
  0.41,                                   ! ASHRAE Taub {dimensionless}
  2.2;                                    ! ASHRAE Taud {dimensionless}

OS:ComponentData,
  {3ae855f5-50cf-427c-8d4e-69e9c8f976be}, ! Handle
  Component Data 1,                       ! Name
  {c7861597-1817-4793-ae63-e41c2a5be0c9}, ! UUID
  {231629ab-bcb8-4e72-b843-e8c40d1dca9c}, ! Version UUID
  1366307969,                             ! Creation Timestamp
  1366307969,                             ! Version Timestamp
  {e6cde028-c0a9-468c-88dc-6ba81fcdf571}; ! Name of Object 1

