
OS:Version,
  {934a01a2-90f5-4a52-8a6c-5bbe87662995}, ! Handle
  0.9.3;                                  ! Version Identifier

OS:SizingPeriod:DesignDay,
  {821cf419-fb86-4c9a-9bb1-58ad84c07739}, ! Handle
  Albany County Ap Ann Clg 2% Condns WB=>MDB, ! Name
  26.7,                                   ! Maximum Dry-Bulb Temperature {C}
  11.1,                                   ! Daily Dry-Bulb Temperature Range {deltaC}
  22.6,                                   ! Humidity Indicating Conditions at Maximum Dry-Bulb {BasedOnField A3}
  100320,                                 ! Barometric Pressure {Pa}
  4.4,                                    ! Wind Speed {m/s}
  180,                                    ! Wind Direction {deg}
  0,                                      ! Sky Clearness
  0,                                      ! Rain Indicator
  0,                                      ! Snow Indicator
  21,                                     ! Day of Month
  7,                                      ! Month
  SummerDesignDay,                        ! Day Type
  0,                                      ! Daylight Saving Time Indicator
  Wetbulb,                                ! Humidity Indicating Type
  ,                                       ! Humidity Indicating Day Schedule Name
  DefaultMultipliers,                     ! Dry-Bulb Temperature Range Modifier Type
  ,                                       ! Dry-Bulb Temperature Range Modifier Schedule Name
  ASHRAETau,                              ! Solar Model Indicator
  ,                                       ! Beam Solar Day Schedule Name
  ,                                       ! Diffuse Solar Day Schedule Name
  0.49,                                   ! ASHRAE Taub {dimensionless}
  1.923;                                  ! ASHRAE Taud {dimensionless}

OS:ComponentData,
  {72b831df-53c5-4a9f-8111-fffe68ecc152}, ! Handle
  Component Data 1,                       ! Name
  {f873705c-443d-4c4c-870c-c44825d3514c}, ! UUID
  {486efb1d-0ca0-45d2-aef7-173a6fc9920b}, ! Version UUID
  1366309585,                             ! Creation Timestamp
  1366309585,                             ! Version Timestamp
  {821cf419-fb86-4c9a-9bb1-58ad84c07739}; ! Name of Object 1

