
OS:Version,
  {86974fe1-9034-423d-ba0b-4ea187888c0f}, ! Handle
  0.9.3;                                  ! Version Identifier

OS:SizingPeriod:DesignDay,
  {8bf9b75d-227b-4aed-8d7f-838d180f7421}, ! Handle
  Kodiak Airport Ann Htg 99.6% Condns DB, ! Name
  -13,                                    ! Maximum Dry-Bulb Temperature {C}
  0,                                      ! Daily Dry-Bulb Temperature Range {deltaC}
  -13,                                    ! Humidity Indicating Conditions at Maximum Dry-Bulb {BasedOnField A3}
  101265,                                 ! Barometric Pressure {Pa}
  6,                                      ! Wind Speed {m/s}
  300,                                    ! Wind Direction {deg}
  0,                                      ! Sky Clearness
  0,                                      ! Rain Indicator
  0,                                      ! Snow Indicator
  21,                                     ! Day of Month
  1,                                      ! Month
  WinterDesignDay,                        ! Day Type
  0,                                      ! Daylight Saving Time Indicator
  Wetbulb,                                ! Humidity Indicating Type
  ,                                       ! Humidity Indicating Day Schedule Name
  DefaultMultipliers,                     ! Dry-Bulb Temperature Range Modifier Type
  ,                                       ! Dry-Bulb Temperature Range Modifier Schedule Name
  ASHRAEClearSky;                         ! Solar Model Indicator

OS:ComponentData,
  {f5bd88c9-dd9c-45c4-89c8-58b59be3e0b3}, ! Handle
  Component Data 1,                       ! Name
  {ea92280d-1ea6-416d-98b2-38a4d3d9a03b}, ! UUID
  {e6f4a316-0dbe-4298-addc-50222e620172}, ! Version UUID
  1366305380,                             ! Creation Timestamp
  1366305380,                             ! Version Timestamp
  {8bf9b75d-227b-4aed-8d7f-838d180f7421}; ! Name of Object 1

