
OS:Version,
  {befac764-87e8-456c-a002-f0b4a7ecd492}, ! Handle
  0.9.3;                                  ! Version Identifier

OS:SizingPeriod:DesignDay,
  {74851fa3-0d9f-4484-8972-dc482a463c91}, ! Handle
  Cut Bank Muni Ap Ann Hum_n 99.6% Condns DP=>MCDB, ! Name
  -27.3,                                  ! Maximum Dry-Bulb Temperature {C}
  0,                                      ! Daily Dry-Bulb Temperature Range {deltaC}
  -32.7,                                  ! Humidity Indicating Conditions at Maximum Dry-Bulb {BasedOnField A3}
  88037,                                  ! Barometric Pressure {Pa}
  2.7,                                    ! Wind Speed {m/s}
  350,                                    ! Wind Direction {deg}
  0,                                      ! Sky Clearness
  0,                                      ! Rain Indicator
  0,                                      ! Snow Indicator
  21,                                     ! Day of Month
  1,                                      ! Month
  WinterDesignDay,                        ! Day Type
  0,                                      ! Daylight Saving Time Indicator
  Dewpoint,                               ! Humidity Indicating Type
  ,                                       ! Humidity Indicating Day Schedule Name
  DefaultMultipliers,                     ! Dry-Bulb Temperature Range Modifier Type
  ,                                       ! Dry-Bulb Temperature Range Modifier Schedule Name
  ASHRAEClearSky;                         ! Solar Model Indicator

OS:ComponentData,
  {e31a33c7-41fb-4332-ac71-a8057294ce9e}, ! Handle
  Component Data 1,                       ! Name
  {1314dbe4-fbf6-4fb6-b059-430adf96c1fe}, ! UUID
  {9cea4b9c-2836-4a4b-8766-c3ac25f65914}, ! Version UUID
  1366308744,                             ! Creation Timestamp
  1366308744,                             ! Version Timestamp
  {74851fa3-0d9f-4484-8972-dc482a463c91}; ! Name of Object 1

