
OS:Version,
  {7dcacdb9-2ce4-4797-9112-007ffc329ada}, ! Handle
  0.9.3;                                  ! Version Identifier

OS:SizingPeriod:DesignDay,
  {62dfc09f-44fc-4296-a8ae-0d3cdd950649}, ! Handle
  Howell Ann Clg 1% Condns DP=>MDB,       ! Name
  26.3,                                   ! Maximum Dry-Bulb Temperature {C}
  12,                                     ! Daily Dry-Bulb Temperature Range {deltaC}
  22.4,                                   ! Humidity Indicating Conditions at Maximum Dry-Bulb {BasedOnField A3}
  97854,                                  ! Barometric Pressure {Pa}
  4.1,                                    ! Wind Speed {m/s}
  220,                                    ! Wind Direction {deg}
  0,                                      ! Sky Clearness
  0,                                      ! Rain Indicator
  0,                                      ! Snow Indicator
  21,                                     ! Day of Month
  7,                                      ! Month
  SummerDesignDay,                        ! Day Type
  0,                                      ! Daylight Saving Time Indicator
  Dewpoint,                               ! Humidity Indicating Type
  ,                                       ! Humidity Indicating Day Schedule Name
  DefaultMultipliers,                     ! Dry-Bulb Temperature Range Modifier Type
  ,                                       ! Dry-Bulb Temperature Range Modifier Schedule Name
  ASHRAETau,                              ! Solar Model Indicator
  ,                                       ! Beam Solar Day Schedule Name
  ,                                       ! Diffuse Solar Day Schedule Name
  0.445,                                  ! ASHRAE Taub {dimensionless}
  2.057;                                  ! ASHRAE Taud {dimensionless}

OS:ComponentData,
  {0be7a772-49e2-4b3a-8f0f-abc19a982530}, ! Handle
  Component Data 1,                       ! Name
  {2153b5e3-053c-40ed-aeca-8c9e683f7139}, ! UUID
  {c5c503f5-0f40-41da-ad25-5176bd552e77}, ! Version UUID
  1366308034,                             ! Creation Timestamp
  1366308034,                             ! Version Timestamp
  {62dfc09f-44fc-4296-a8ae-0d3cdd950649}; ! Name of Object 1

