
OS:Version,
  {45580542-23a4-45e2-bfca-d397c70b0e8c}, ! Handle
  0.9.3;                                  ! Version Identifier

OS:SizingPeriod:DesignDay,
  {4edcce36-a448-4890-8283-57db05374fdb}, ! Handle
  Bridgeport Sikorsky Memorial Ann Clg 1% Condns Enth=>MDB, ! Name
  27.1,                                   ! Maximum Dry-Bulb Temperature {C}
  7.6,                                    ! Daily Dry-Bulb Temperature Range {deltaC}
  70900,                                  ! Humidity Indicating Conditions at Maximum Dry-Bulb {BasedOnField A3}
  101289,                                 ! Barometric Pressure {Pa}
  4.8,                                    ! Wind Speed {m/s}
  240,                                    ! Wind Direction {deg}
  0,                                      ! Sky Clearness
  0,                                      ! Rain Indicator
  0,                                      ! Snow Indicator
  21,                                     ! Day of Month
  7,                                      ! Month
  SummerDesignDay,                        ! Day Type
  0,                                      ! Daylight Saving Time Indicator
  Enthalpy,                               ! Humidity Indicating Type
  ,                                       ! Humidity Indicating Day Schedule Name
  DefaultMultipliers,                     ! Dry-Bulb Temperature Range Modifier Type
  ,                                       ! Dry-Bulb Temperature Range Modifier Schedule Name
  ASHRAETau,                              ! Solar Model Indicator
  ,                                       ! Beam Solar Day Schedule Name
  ,                                       ! Diffuse Solar Day Schedule Name
  0.516,                                  ! ASHRAE Taub {dimensionless}
  1.863;                                  ! ASHRAE Taud {dimensionless}

OS:ComponentData,
  {35c15c9b-f26b-4558-aaee-eb9aa5f25a39}, ! Handle
  Component Data 1,                       ! Name
  {1737b98d-0f4a-4cb7-a0e4-da092bd1c3f3}, ! UUID
  {9fa2db31-a47e-4e2c-929e-355a50d70f92}, ! Version UUID
  1366306746,                             ! Creation Timestamp
  1366306746,                             ! Version Timestamp
  {4edcce36-a448-4890-8283-57db05374fdb}; ! Name of Object 1

