
OS:Version,
  {69bb1e4c-8691-4eab-961e-5cf13190434a}, ! Handle
  0.9.3;                                  ! Version Identifier

OS:SizingPeriod:DesignDay,
  {2d0b1327-c4f0-4f66-b600-f40e12eb5efd}, ! Handle
  Indianapolis Ann Clg 1% Condns DB=>MWB, ! Name
  31.5,                                   ! Maximum Dry-Bulb Temperature {C}
  10.2,                                   ! Daily Dry-Bulb Temperature Range {deltaC}
  23.5,                                   ! Humidity Indicating Conditions at Maximum Dry-Bulb {BasedOnField A3}
  98404,                                  ! Barometric Pressure {Pa}
  4.8,                                    ! Wind Speed {m/s}
  220,                                    ! Wind Direction {deg}
  0,                                      ! Sky Clearness
  0,                                      ! Rain Indicator
  0,                                      ! Snow Indicator
  21,                                     ! Day of Month
  7,                                      ! Month
  SummerDesignDay,                        ! Day Type
  0,                                      ! Daylight Saving Time Indicator
  Wetbulb,                                ! Humidity Indicating Type
  ,                                       ! Humidity Indicating Day Schedule Name
  DefaultMultipliers,                     ! Dry-Bulb Temperature Range Modifier Type
  ,                                       ! Dry-Bulb Temperature Range Modifier Schedule Name
  ASHRAETau,                              ! Solar Model Indicator
  ,                                       ! Beam Solar Day Schedule Name
  ,                                       ! Diffuse Solar Day Schedule Name
  0.48,                                   ! ASHRAE Taub {dimensionless}
  1.954;                                  ! ASHRAE Taud {dimensionless}

OS:ComponentData,
  {9c5c8b3b-1770-4f8b-b52c-5f3eb7abb5b4}, ! Handle
  Component Data 1,                       ! Name
  {6d89c4c6-95b7-4fa1-b193-e85efa74776c}, ! UUID
  {d72d2c0b-efe6-4c02-bcc0-514585064fd3}, ! Version UUID
  1366307463,                             ! Creation Timestamp
  1366307463,                             ! Version Timestamp
  {2d0b1327-c4f0-4f66-b600-f40e12eb5efd}; ! Name of Object 1

