
OS:Version,
  {d454b878-0846-4f54-8930-a2a58b4f4c70}, ! Handle
  0.9.3;                                  ! Version Identifier

OS:SizingPeriod:DesignDay,
  {74d8e3bb-8fa1-4854-9540-aea66a1c9f7a}, ! Handle
  Fallon Naas Ann Clg 2% Condns Enth=>MDB, ! Name
  32.7,                                   ! Maximum Dry-Bulb Temperature {C}
  19.4,                                   ! Daily Dry-Bulb Temperature Range {deltaC}
  50700,                                  ! Humidity Indicating Conditions at Maximum Dry-Bulb {BasedOnField A3}
  87726,                                  ! Barometric Pressure {Pa}
  2.7,                                    ! Wind Speed {m/s}
  340,                                    ! Wind Direction {deg}
  0,                                      ! Sky Clearness
  0,                                      ! Rain Indicator
  0,                                      ! Snow Indicator
  21,                                     ! Day of Month
  7,                                      ! Month
  SummerDesignDay,                        ! Day Type
  0,                                      ! Daylight Saving Time Indicator
  Enthalpy,                               ! Humidity Indicating Type
  ,                                       ! Humidity Indicating Day Schedule Name
  DefaultMultipliers,                     ! Dry-Bulb Temperature Range Modifier Type
  ,                                       ! Dry-Bulb Temperature Range Modifier Schedule Name
  ASHRAETau,                              ! Solar Model Indicator
  ,                                       ! Beam Solar Day Schedule Name
  ,                                       ! Diffuse Solar Day Schedule Name
  0.428,                                  ! ASHRAE Taub {dimensionless}
  1.955;                                  ! ASHRAE Taud {dimensionless}

OS:ComponentData,
  {2f767a8c-b4b2-40fb-a58c-ea4bbaaa1a02}, ! Handle
  Component Data 1,                       ! Name
  {9617b196-fcff-499c-8bbe-069600a8869e}, ! UUID
  {a60d0bab-2b87-4243-835b-07fe80319f90}, ! Version UUID
  1366309493,                             ! Creation Timestamp
  1366309493,                             ! Version Timestamp
  {74d8e3bb-8fa1-4854-9540-aea66a1c9f7a}; ! Name of Object 1

