
OS:Version,
  {c8b5a9cc-d00d-482f-b572-558837237311}, ! Handle
  0.9.3;                                  ! Version Identifier

OS:SizingPeriod:DesignDay,
  {9c014941-4fb5-4a4a-8e3f-a7a30152c8a6}, ! Handle
  ALBANY Ann Htg Wind 99.6% Condns WS=>MCDB, ! Name
  -5.4,                                   ! Maximum Dry-Bulb Temperature {C}
  0,                                      ! Daily Dry-Bulb Temperature Range {deltaC}
  -5.4,                                   ! Humidity Indicating Conditions at Maximum Dry-Bulb {BasedOnField A3}
  100260,                                 ! Barometric Pressure {Pa}
  12.1,                                   ! Wind Speed {m/s}
  300,                                    ! Wind Direction {deg}
  0,                                      ! Sky Clearness
  0,                                      ! Rain Indicator
  0,                                      ! Snow Indicator
  21,                                     ! Day of Month
  1,                                      ! Month
  WinterDesignDay,                        ! Day Type
  0,                                      ! Daylight Saving Time Indicator
  Wetbulb,                                ! Humidity Indicating Type
  ,                                       ! Humidity Indicating Day Schedule Name
  DefaultMultipliers,                     ! Dry-Bulb Temperature Range Modifier Type
  ,                                       ! Dry-Bulb Temperature Range Modifier Schedule Name
  ASHRAEClearSky;                         ! Solar Model Indicator

OS:ComponentData,
  {faaca6e2-5b1b-456f-957d-dd2b0aecb6cb}, ! Handle
  Component Data 1,                       ! Name
  {c7dea1e2-3f92-44de-ba52-b07b3e8bd55c}, ! UUID
  {f45ddeeb-8fbf-4a35-8ed6-c5031fde5af9}, ! Version UUID
  1366309573,                             ! Creation Timestamp
  1366309573,                             ! Version Timestamp
  {9c014941-4fb5-4a4a-8e3f-a7a30152c8a6}; ! Name of Object 1

