
OS:Version,
  {57be315b-1ba7-4502-a297-a8cbe314baa2}, ! Handle
  0.9.3;                                  ! Version Identifier

OS:SizingPeriod:DesignDay,
  {2c70954e-d977-41b8-86d2-969cd3334c85}, ! Handle
  Block Island State Arpt Ann Clg .4% Condns DB=>MWB, ! Name
  27.6,                                   ! Maximum Dry-Bulb Temperature {C}
  6.7,                                    ! Daily Dry-Bulb Temperature Range {deltaC}
  21.7,                                   ! Humidity Indicating Conditions at Maximum Dry-Bulb {BasedOnField A3}
  100917,                                 ! Barometric Pressure {Pa}
  5.2,                                    ! Wind Speed {m/s}
  240,                                    ! Wind Direction {deg}
  0,                                      ! Sky Clearness
  0,                                      ! Rain Indicator
  0,                                      ! Snow Indicator
  21,                                     ! Day of Month
  7,                                      ! Month
  SummerDesignDay,                        ! Day Type
  0,                                      ! Daylight Saving Time Indicator
  Wetbulb,                                ! Humidity Indicating Type
  ,                                       ! Humidity Indicating Day Schedule Name
  DefaultMultipliers,                     ! Dry-Bulb Temperature Range Modifier Type
  ,                                       ! Dry-Bulb Temperature Range Modifier Schedule Name
  ASHRAETau,                              ! Solar Model Indicator
  ,                                       ! Beam Solar Day Schedule Name
  ,                                       ! Diffuse Solar Day Schedule Name
  0.522,                                  ! ASHRAE Taub {dimensionless}
  1.856;                                  ! ASHRAE Taud {dimensionless}

OS:ComponentData,
  {03f8d605-cd23-4880-afba-181ce70f9dd3}, ! Handle
  Component Data 1,                       ! Name
  {8763ffd0-7b81-4b08-bb97-c76ad574e244}, ! UUID
  {95489ddb-9f0b-4fd6-bd09-942caf26fdc3}, ! Version UUID
  1366310288,                             ! Creation Timestamp
  1366310288,                             ! Version Timestamp
  {2c70954e-d977-41b8-86d2-969cd3334c85}; ! Name of Object 1

