
OS:Version,
  {851495d9-9029-4f69-9a87-7305da376a73}, ! Handle
  0.9.3;                                  ! Version Identifier

OS:SizingPeriod:DesignDay,
  {057779ea-912e-410c-b3c6-a0b11b2a0278}, ! Handle
  DAGGETT Ann Clg 1% Condns DB=>MWB,      ! Name
  41.3,                                   ! Maximum Dry-Bulb Temperature {C}
  16.6,                                   ! Daily Dry-Bulb Temperature Range {deltaC}
  20.4,                                   ! Humidity Indicating Conditions at Maximum Dry-Bulb {BasedOnField A3}
  94458,                                  ! Barometric Pressure {Pa}
  4.8,                                    ! Wind Speed {m/s}
  290,                                    ! Wind Direction {deg}
  0,                                      ! Sky Clearness
  0,                                      ! Rain Indicator
  0,                                      ! Snow Indicator
  21,                                     ! Day of Month
  7,                                      ! Month
  SummerDesignDay,                        ! Day Type
  0,                                      ! Daylight Saving Time Indicator
  Wetbulb,                                ! Humidity Indicating Type
  ,                                       ! Humidity Indicating Day Schedule Name
  DefaultMultipliers,                     ! Dry-Bulb Temperature Range Modifier Type
  ,                                       ! Dry-Bulb Temperature Range Modifier Schedule Name
  ASHRAETau,                              ! Solar Model Indicator
  ,                                       ! Beam Solar Day Schedule Name
  ,                                       ! Diffuse Solar Day Schedule Name
  0.497,                                  ! ASHRAE Taub {dimensionless}
  1.821;                                  ! ASHRAE Taud {dimensionless}

OS:ComponentData,
  {5b64cb2d-9c08-4c94-8534-a00bdba0fb14}, ! Handle
  Component Data 1,                       ! Name
  {f0191daa-8cb5-41f4-8d8e-f827012f7e2b}, ! UUID
  {d2bd111a-7e4f-478d-b2ea-b3fd414fa47b}, ! Version UUID
  1366306371,                             ! Creation Timestamp
  1366306371,                             ! Version Timestamp
  {057779ea-912e-410c-b3c6-a0b11b2a0278}; ! Name of Object 1

