
OS:Version,
  {45978b6f-cec2-4f66-aafc-346c970a1391}, ! Handle
  0.9.3;                                  ! Version Identifier

OS:SizingPeriod:DesignDay,
  {9ba9426c-9d72-443f-b3d1-3037e8ccf2bd}, ! Handle
  Corpus Christi Intl Arpt  Ut Ann Clg 1% Condns DB=>MWB, ! Name
  34.6,                                   ! Maximum Dry-Bulb Temperature {C}
  10.1,                                   ! Daily Dry-Bulb Temperature Range {deltaC}
  25.4,                                   ! Humidity Indicating Conditions at Maximum Dry-Bulb {BasedOnField A3}
  101253,                                 ! Barometric Pressure {Pa}
  6.6,                                    ! Wind Speed {m/s}
  140,                                    ! Wind Direction {deg}
  0,                                      ! Sky Clearness
  0,                                      ! Rain Indicator
  0,                                      ! Snow Indicator
  21,                                     ! Day of Month
  8,                                      ! Month
  SummerDesignDay,                        ! Day Type
  0,                                      ! Daylight Saving Time Indicator
  Wetbulb,                                ! Humidity Indicating Type
  ,                                       ! Humidity Indicating Day Schedule Name
  DefaultMultipliers,                     ! Dry-Bulb Temperature Range Modifier Type
  ,                                       ! Dry-Bulb Temperature Range Modifier Schedule Name
  ASHRAETau,                              ! Solar Model Indicator
  ,                                       ! Beam Solar Day Schedule Name
  ,                                       ! Diffuse Solar Day Schedule Name
  0.463,                                  ! ASHRAE Taub {dimensionless}
  2.116;                                  ! ASHRAE Taud {dimensionless}

OS:ComponentData,
  {b1a5511b-8758-4ed6-b0bb-0bfdb6209d17}, ! Handle
  Component Data 1,                       ! Name
  {f6709804-e8c2-4b2e-9688-3824b385ec97}, ! UUID
  {31eac210-1957-46ac-a677-b73db1824487}, ! Version UUID
  1366310630,                             ! Creation Timestamp
  1366310630,                             ! Version Timestamp
  {9ba9426c-9d72-443f-b3d1-3037e8ccf2bd}; ! Name of Object 1

