
OS:Version,
  {86e97750-4ee4-4659-afcd-56cc8786022a}, ! Handle
  0.9.3;                                  ! Version Identifier

OS:SizingPeriod:DesignDay,
  {c6b6b22e-606f-4a86-a460-ded404af51f6}, ! Handle
  KING_SALMON Ann Clg 1% Condns WB=>MDB,  ! Name
  18.8,                                   ! Maximum Dry-Bulb Temperature {C}
  8.6,                                    ! Daily Dry-Bulb Temperature Range {deltaC}
  14.8,                                   ! Humidity Indicating Conditions at Maximum Dry-Bulb {BasedOnField A3}
  101145,                                 ! Barometric Pressure {Pa}
  4.8,                                    ! Wind Speed {m/s}
  270,                                    ! Wind Direction {deg}
  0,                                      ! Sky Clearness
  0,                                      ! Rain Indicator
  0,                                      ! Snow Indicator
  21,                                     ! Day of Month
  7,                                      ! Month
  SummerDesignDay,                        ! Day Type
  0,                                      ! Daylight Saving Time Indicator
  Wetbulb,                                ! Humidity Indicating Type
  ,                                       ! Humidity Indicating Day Schedule Name
  DefaultMultipliers,                     ! Dry-Bulb Temperature Range Modifier Type
  ,                                       ! Dry-Bulb Temperature Range Modifier Schedule Name
  ASHRAETau,                              ! Solar Model Indicator
  ,                                       ! Beam Solar Day Schedule Name
  ,                                       ! Diffuse Solar Day Schedule Name
  0.384,                                  ! ASHRAE Taub {dimensionless}
  2.227;                                  ! ASHRAE Taud {dimensionless}

OS:ComponentData,
  {8986a703-05cd-4443-af74-639a9795f55e}, ! Handle
  Component Data 1,                       ! Name
  {1b02bccc-c93c-4313-936f-38f10f8d0cc8}, ! UUID
  {3e74f6cd-42cb-42a8-9b24-a30808aa8a61}, ! Version UUID
  1366305359,                             ! Creation Timestamp
  1366305359,                             ! Version Timestamp
  {c6b6b22e-606f-4a86-a460-ded404af51f6}; ! Name of Object 1

