
OS:Version,
  {cada03c5-55ea-439d-83b9-1b570d5c127a}, ! Handle
  0.9.3;                                  ! Version Identifier

OS:SizingPeriod:DesignDay,
  {ec74a134-18ea-4426-ab5b-8cdc3cdc4a44}, ! Handle
  Buffalo Niagara Intl Ap Ann Clg 2% Condns Enth=>MDB, ! Name
  25.7,                                   ! Maximum Dry-Bulb Temperature {C}
  9.3,                                    ! Daily Dry-Bulb Temperature Range {deltaC}
  65200,                                  ! Humidity Indicating Conditions at Maximum Dry-Bulb {BasedOnField A3}
  98769,                                  ! Barometric Pressure {Pa}
  5.7,                                    ! Wind Speed {m/s}
  240,                                    ! Wind Direction {deg}
  0,                                      ! Sky Clearness
  0,                                      ! Rain Indicator
  0,                                      ! Snow Indicator
  21,                                     ! Day of Month
  7,                                      ! Month
  SummerDesignDay,                        ! Day Type
  0,                                      ! Daylight Saving Time Indicator
  Enthalpy,                               ! Humidity Indicating Type
  ,                                       ! Humidity Indicating Day Schedule Name
  DefaultMultipliers,                     ! Dry-Bulb Temperature Range Modifier Type
  ,                                       ! Dry-Bulb Temperature Range Modifier Schedule Name
  ASHRAETau,                              ! Solar Model Indicator
  ,                                       ! Beam Solar Day Schedule Name
  ,                                       ! Diffuse Solar Day Schedule Name
  0.462,                                  ! ASHRAE Taub {dimensionless}
  2.001;                                  ! ASHRAE Taud {dimensionless}

OS:ComponentData,
  {a91abee3-89a5-4ac1-a4a7-ff5e786655fb}, ! Handle
  Component Data 1,                       ! Name
  {d938d12e-8415-46cd-a619-d6358080c519}, ! UUID
  {8c4508b2-e43f-42f8-a9a7-664bbe902852}, ! Version UUID
  1366309610,                             ! Creation Timestamp
  1366309610,                             ! Version Timestamp
  {ec74a134-18ea-4426-ab5b-8cdc3cdc4a44}; ! Name of Object 1

