
OS:Version,
  {6518606a-92e1-47a6-a89f-a386c2176c1a}, ! Handle
  0.9.3;                                  ! Version Identifier

OS:SizingPeriod:DesignDay,
  {a286ff35-0330-421f-9ab4-3641b13c2eaa}, ! Handle
  Bowling Green Warren Co Ap Ann Hum_n 99% Condns DP=>MCDB, ! Name
  -8,                                     ! Maximum Dry-Bulb Temperature {C}
  0,                                      ! Daily Dry-Bulb Temperature Range {deltaC}
  -13.9,                                  ! Humidity Indicating Conditions at Maximum Dry-Bulb {BasedOnField A3}
  99406,                                  ! Barometric Pressure {Pa}
  2.9,                                    ! Wind Speed {m/s}
  340,                                    ! Wind Direction {deg}
  0,                                      ! Sky Clearness
  0,                                      ! Rain Indicator
  0,                                      ! Snow Indicator
  21,                                     ! Day of Month
  1,                                      ! Month
  WinterDesignDay,                        ! Day Type
  0,                                      ! Daylight Saving Time Indicator
  Dewpoint,                               ! Humidity Indicating Type
  ,                                       ! Humidity Indicating Day Schedule Name
  DefaultMultipliers,                     ! Dry-Bulb Temperature Range Modifier Type
  ,                                       ! Dry-Bulb Temperature Range Modifier Schedule Name
  ASHRAEClearSky;                         ! Solar Model Indicator

OS:ComponentData,
  {4f8ee895-b462-428d-93e2-ba0720c5640a}, ! Handle
  Component Data 1,                       ! Name
  {4359cc01-eb2f-40d1-88df-564cfc742b3b}, ! UUID
  {2679584d-3c40-43e9-af51-0411f331ad3e}, ! Version UUID
  1366307611,                             ! Creation Timestamp
  1366307611,                             ! Version Timestamp
  {a286ff35-0330-421f-9ab4-3641b13c2eaa}; ! Name of Object 1

