
OS:Version,
  {86c4ec39-57ab-411f-8b31-6b3dad18a6d1}, ! Handle
  0.9.3;                                  ! Version Identifier

OS:SizingPeriod:DesignDay,
  {60867e10-80db-4589-adc4-995bbed2a88f}, ! Handle
  Fort Worth Meacham Ann Htg Wind 99% Condns WS=>MCDB, ! Name
  8.5,                                    ! Maximum Dry-Bulb Temperature {C}
  0,                                      ! Daily Dry-Bulb Temperature Range {deltaC}
  8.5,                                    ! Humidity Indicating Conditions at Maximum Dry-Bulb {BasedOnField A3}
  98839,                                  ! Barometric Pressure {Pa}
  9.8,                                    ! Wind Speed {m/s}
  0,                                      ! Wind Direction {deg}
  0,                                      ! Sky Clearness
  0,                                      ! Rain Indicator
  0,                                      ! Snow Indicator
  21,                                     ! Day of Month
  1,                                      ! Month
  WinterDesignDay,                        ! Day Type
  0,                                      ! Daylight Saving Time Indicator
  Wetbulb,                                ! Humidity Indicating Type
  ,                                       ! Humidity Indicating Day Schedule Name
  DefaultMultipliers,                     ! Dry-Bulb Temperature Range Modifier Type
  ,                                       ! Dry-Bulb Temperature Range Modifier Schedule Name
  ASHRAEClearSky;                         ! Solar Model Indicator

