
OS:Version,
  {d6552d19-1363-4933-b3cf-9b1fedd8466e}, ! Handle
  0.9.3;                                  ! Version Identifier

OS:SizingPeriod:DesignDay,
  {5ba85817-c80a-4b24-a7ca-d4aff342ee77}, ! Handle
  Columbia Regional Airport Ann Clg 2% Condns Enth=>MDB, ! Name
  30.2,                                   ! Maximum Dry-Bulb Temperature {C}
  11,                                     ! Daily Dry-Bulb Temperature Range {deltaC}
  76000,                                  ! Humidity Indicating Conditions at Maximum Dry-Bulb {BasedOnField A3}
  98100,                                  ! Barometric Pressure {Pa}
  4.4,                                    ! Wind Speed {m/s}
  220,                                    ! Wind Direction {deg}
  0,                                      ! Sky Clearness
  0,                                      ! Rain Indicator
  0,                                      ! Snow Indicator
  21,                                     ! Day of Month
  7,                                      ! Month
  SummerDesignDay,                        ! Day Type
  0,                                      ! Daylight Saving Time Indicator
  Enthalpy,                               ! Humidity Indicating Type
  ,                                       ! Humidity Indicating Day Schedule Name
  DefaultMultipliers,                     ! Dry-Bulb Temperature Range Modifier Type
  ,                                       ! Dry-Bulb Temperature Range Modifier Schedule Name
  ASHRAETau,                              ! Solar Model Indicator
  ,                                       ! Beam Solar Day Schedule Name
  ,                                       ! Diffuse Solar Day Schedule Name
  0.448,                                  ! ASHRAE Taub {dimensionless}
  2.098;                                  ! ASHRAE Taud {dimensionless}

OS:ComponentData,
  {42b54809-7978-4d7f-b4b5-c330c394024a}, ! Handle
  Component Data 1,                       ! Name
  {811ae771-5d67-4cb8-a557-df8ae182ea13}, ! UUID
  {99e157ff-f343-4266-8179-a20ee8d16f03}, ! Version UUID
  1366308494,                             ! Creation Timestamp
  1366308494,                             ! Version Timestamp
  {5ba85817-c80a-4b24-a7ca-d4aff342ee77}; ! Name of Object 1

