
OS:Version,
  {7bd7ca54-cd80-455b-9ad5-97293a1ea28a}, ! Handle
  0.9.3;                                  ! Version Identifier

OS:SizingPeriod:DesignDay,
  {524122d5-5cc8-4303-a8ad-d406e808247d}, ! Handle
  Carlsbad Cavern City Air Term Ann Clg .4% Condns WB=>MDB, ! Name
  30.7,                                   ! Maximum Dry-Bulb Temperature {C}
  14.5,                                   ! Daily Dry-Bulb Temperature Range {deltaC}
  22.1,                                   ! Humidity Indicating Conditions at Maximum Dry-Bulb {BasedOnField A3}
  90038,                                  ! Barometric Pressure {Pa}
  4.9,                                    ! Wind Speed {m/s}
  140,                                    ! Wind Direction {deg}
  0,                                      ! Sky Clearness
  0,                                      ! Rain Indicator
  0,                                      ! Snow Indicator
  21,                                     ! Day of Month
  7,                                      ! Month
  SummerDesignDay,                        ! Day Type
  0,                                      ! Daylight Saving Time Indicator
  Wetbulb,                                ! Humidity Indicating Type
  ,                                       ! Humidity Indicating Day Schedule Name
  DefaultMultipliers,                     ! Dry-Bulb Temperature Range Modifier Type
  ,                                       ! Dry-Bulb Temperature Range Modifier Schedule Name
  ASHRAETau,                              ! Solar Model Indicator
  ,                                       ! Beam Solar Day Schedule Name
  ,                                       ! Diffuse Solar Day Schedule Name
  0.494,                                  ! ASHRAE Taub {dimensionless}
  1.831;                                  ! ASHRAE Taud {dimensionless}

OS:ComponentData,
  {0dbdfca8-bba6-451c-bc3b-3cf32d41dc08}, ! Handle
  Component Data 1,                       ! Name
  {7f62583b-f03c-4c7f-9d1e-0361bc13c15e}, ! UUID
  {ceca2754-c351-46aa-a968-10366f9034e4}, ! Version UUID
  1366309375,                             ! Creation Timestamp
  1366309375,                             ! Version Timestamp
  {524122d5-5cc8-4303-a8ad-d406e808247d}; ! Name of Object 1

