
OS:Version,
  {515bc47e-ffd0-4ed4-988a-0db124fd936e}, ! Handle
  0.9.3;                                  ! Version Identifier

OS:SizingPeriod:DesignDay,
  {ce45cfe4-3bb4-46da-bc88-06d4481fdff4}, ! Handle
  KODIAK Ann Htg 99% Condns DB,           ! Name
  -10.6,                                  ! Maximum Dry-Bulb Temperature {C}
  0,                                      ! Daily Dry-Bulb Temperature Range {deltaC}
  -10.6,                                  ! Humidity Indicating Conditions at Maximum Dry-Bulb {BasedOnField A3}
  100917,                                 ! Barometric Pressure {Pa}
  6,                                      ! Wind Speed {m/s}
  300,                                    ! Wind Direction {deg}
  0,                                      ! Sky Clearness
  0,                                      ! Rain Indicator
  0,                                      ! Snow Indicator
  21,                                     ! Day of Month
  1,                                      ! Month
  WinterDesignDay,                        ! Day Type
  0,                                      ! Daylight Saving Time Indicator
  Wetbulb,                                ! Humidity Indicating Type
  ,                                       ! Humidity Indicating Day Schedule Name
  DefaultMultipliers,                     ! Dry-Bulb Temperature Range Modifier Type
  ,                                       ! Dry-Bulb Temperature Range Modifier Schedule Name
  ASHRAEClearSky;                         ! Solar Model Indicator

OS:ComponentData,
  {2c4a425d-c5ca-4d45-8e9f-85711b275268}, ! Handle
  Component Data 1,                       ! Name
  {04fda05a-c64a-4d4d-8c9a-34c83f2cbfb9}, ! UUID
  {2100a86a-db80-4566-b2b9-a0a7c0ce6803}, ! Version UUID
  1366305369,                             ! Creation Timestamp
  1366305369,                             ! Version Timestamp
  {ce45cfe4-3bb4-46da-bc88-06d4481fdff4}; ! Name of Object 1

