
OS:Version,
  {bbcc0e4c-1891-4835-84bd-bc74e3de8dba}, ! Handle
  0.9.3;                                  ! Version Identifier

OS:SizingPeriod:DesignDay,
  {fcaf3ff9-ab37-4c31-8d32-17e9c9f18c22}, ! Handle
  Imperial Ann Clg 1% Condns DP=>MDB,     ! Name
  31.8,                                   ! Maximum Dry-Bulb Temperature {C}
  15.8,                                   ! Daily Dry-Bulb Temperature Range {deltaC}
  24,                                     ! Humidity Indicating Conditions at Maximum Dry-Bulb {BasedOnField A3}
  101529,                                 ! Barometric Pressure {Pa}
  3.5,                                    ! Wind Speed {m/s}
  110,                                    ! Wind Direction {deg}
  0,                                      ! Sky Clearness
  0,                                      ! Rain Indicator
  0,                                      ! Snow Indicator
  21,                                     ! Day of Month
  7,                                      ! Month
  SummerDesignDay,                        ! Day Type
  0,                                      ! Daylight Saving Time Indicator
  Dewpoint,                               ! Humidity Indicating Type
  ,                                       ! Humidity Indicating Day Schedule Name
  DefaultMultipliers,                     ! Dry-Bulb Temperature Range Modifier Type
  ,                                       ! Dry-Bulb Temperature Range Modifier Schedule Name
  ASHRAETau,                              ! Solar Model Indicator
  ,                                       ! Beam Solar Day Schedule Name
  ,                                       ! Diffuse Solar Day Schedule Name
  0.528,                                  ! ASHRAE Taub {dimensionless}
  1.788;                                  ! ASHRAE Taud {dimensionless}

OS:ComponentData,
  {e6ac6df3-aa87-417a-87a1-6d09c0e282cc}, ! Handle
  Component Data 1,                       ! Name
  {c79bad2e-5a0c-4a14-8895-1bc1e989dfe2}, ! UUID
  {4374f8c2-66a0-4c48-b06f-8d35b139e728}, ! Version UUID
  1366306455,                             ! Creation Timestamp
  1366306455,                             ! Version Timestamp
  {fcaf3ff9-ab37-4c31-8d32-17e9c9f18c22}; ! Name of Object 1

