
OS:Version,
  {adad2a8c-90f5-45a4-9866-784e79f76e7b}, ! Handle
  0.9.3;                                  ! Version Identifier

OS:SizingPeriod:DesignDay,
  {037c15f8-b566-4d57-ab02-eee0376a8d1d}, ! Handle
  Luke Afb Ann Clg 1% Condns DB=>MWB,     ! Name
  42.5,                                   ! Maximum Dry-Bulb Temperature {C}
  14.2,                                   ! Daily Dry-Bulb Temperature Range {deltaC}
  21.4,                                   ! Humidity Indicating Conditions at Maximum Dry-Bulb {BasedOnField A3}
  97411,                                  ! Barometric Pressure {Pa}
  4.9,                                    ! Wind Speed {m/s}
  220,                                    ! Wind Direction {deg}
  0,                                      ! Sky Clearness
  0,                                      ! Rain Indicator
  0,                                      ! Snow Indicator
  21,                                     ! Day of Month
  7,                                      ! Month
  SummerDesignDay,                        ! Day Type
  0,                                      ! Daylight Saving Time Indicator
  Wetbulb,                                ! Humidity Indicating Type
  ,                                       ! Humidity Indicating Day Schedule Name
  DefaultMultipliers,                     ! Dry-Bulb Temperature Range Modifier Type
  ,                                       ! Dry-Bulb Temperature Range Modifier Schedule Name
  ASHRAETau,                              ! Solar Model Indicator
  ,                                       ! Beam Solar Day Schedule Name
  ,                                       ! Diffuse Solar Day Schedule Name
  0.597,                                  ! ASHRAE Taub {dimensionless}
  1.622;                                  ! ASHRAE Taud {dimensionless}

OS:ComponentData,
  {1760b59f-4505-4e3b-9a25-886e509143b1}, ! Handle
  Component Data 1,                       ! Name
  {4cb8d044-ff6a-4cd7-be61-af9bec213c10}, ! UUID
  {69361c25-7a53-4233-b420-7fd835711de2}, ! Version UUID
  1366306284,                             ! Creation Timestamp
  1366306284,                             ! Version Timestamp
  {037c15f8-b566-4d57-ab02-eee0376a8d1d}; ! Name of Object 1

