
OS:Version,
  {500f0031-bce2-4255-823e-0e9e4c7d8059}, ! Handle
  0.9.3;                                  ! Version Identifier

OS:SizingPeriod:DesignDay,
  {1a53933e-d964-4210-a5d9-4f3dc873e209}, ! Handle
  Lewistown Municipal Arpt Ann Clg 2% Condns DP=>MDB, ! Name
  19.2,                                   ! Maximum Dry-Bulb Temperature {C}
  15.7,                                   ! Daily Dry-Bulb Temperature Range {deltaC}
  12.2,                                   ! Humidity Indicating Conditions at Maximum Dry-Bulb {BasedOnField A3}
  87044,                                  ! Barometric Pressure {Pa}
  4.3,                                    ! Wind Speed {m/s}
  0,                                      ! Wind Direction {deg}
  0,                                      ! Sky Clearness
  0,                                      ! Rain Indicator
  0,                                      ! Snow Indicator
  21,                                     ! Day of Month
  7,                                      ! Month
  SummerDesignDay,                        ! Day Type
  0,                                      ! Daylight Saving Time Indicator
  Dewpoint,                               ! Humidity Indicating Type
  ,                                       ! Humidity Indicating Day Schedule Name
  DefaultMultipliers,                     ! Dry-Bulb Temperature Range Modifier Type
  ,                                       ! Dry-Bulb Temperature Range Modifier Schedule Name
  ASHRAETau,                              ! Solar Model Indicator
  ,                                       ! Beam Solar Day Schedule Name
  ,                                       ! Diffuse Solar Day Schedule Name
  0.382,                                  ! ASHRAE Taub {dimensionless}
  2.178;                                  ! ASHRAE Taud {dimensionless}

OS:ComponentData,
  {7acc3aca-73ad-431d-a249-e44c274c0011}, ! Handle
  Component Data 1,                       ! Name
  {f2ae4e29-2bf5-42b2-95c7-efc801dd4e50}, ! UUID
  {c03a30f2-a225-4f6d-87c5-7747f5ce6ea7}, ! Version UUID
  1366308822,                             ! Creation Timestamp
  1366308822,                             ! Version Timestamp
  {1a53933e-d964-4210-a5d9-4f3dc873e209}; ! Name of Object 1

