
OS:Version,
  {d61e46fb-8e01-4a77-9478-59b9fa8859d2}, ! Handle
  0.9.3;                                  ! Version Identifier

OS:SizingPeriod:DesignDay,
  {eb16a198-dd47-4ca2-a6a0-8d034bf6fe08}, ! Handle
  Crookston Muni Fld Ann Clg 1% Condns Enth=>MDB, ! Name
  27.5,                                   ! Maximum Dry-Bulb Temperature {C}
  11.2,                                   ! Daily Dry-Bulb Temperature Range {deltaC}
  68100,                                  ! Humidity Indicating Conditions at Maximum Dry-Bulb {BasedOnField A3}
  98088,                                  ! Barometric Pressure {Pa}
  6.2,                                    ! Wind Speed {m/s}
  180,                                    ! Wind Direction {deg}
  0,                                      ! Sky Clearness
  0,                                      ! Rain Indicator
  0,                                      ! Snow Indicator
  21,                                     ! Day of Month
  7,                                      ! Month
  SummerDesignDay,                        ! Day Type
  0,                                      ! Daylight Saving Time Indicator
  Enthalpy,                               ! Humidity Indicating Type
  ,                                       ! Humidity Indicating Day Schedule Name
  DefaultMultipliers,                     ! Dry-Bulb Temperature Range Modifier Type
  ,                                       ! Dry-Bulb Temperature Range Modifier Schedule Name
  ASHRAETau,                              ! Solar Model Indicator
  ,                                       ! Beam Solar Day Schedule Name
  ,                                       ! Diffuse Solar Day Schedule Name
  0.398,                                  ! ASHRAE Taub {dimensionless}
  2.243;                                  ! ASHRAE Taud {dimensionless}

OS:ComponentData,
  {87f2f0ce-7b18-47d2-b9c6-122edca8eccb}, ! Handle
  Component Data 1,                       ! Name
  {2f753dc2-e18c-4773-82ee-3a5a7abdf8f3}, ! UUID
  {cfde54eb-073a-478d-8790-b6308e6e012e}, ! Version UUID
  1366308190,                             ! Creation Timestamp
  1366308190,                             ! Version Timestamp
  {eb16a198-dd47-4ca2-a6a0-8d034bf6fe08}; ! Name of Object 1

