
OS:Version,
  {ca4bcfdc-d3fa-49c0-b6b1-87f8ddab76cb}, ! Handle
  0.9.3;                                  ! Version Identifier

OS:SizingPeriod:DesignDay,
  {abeb1c05-75cc-43b9-8134-2ebe744f395b}, ! Handle
  Fort Worth/Meacham Fie Ann Clg 2% Condns WB=>MDB, ! Name
  30.2,                                   ! Maximum Dry-Bulb Temperature {C}
  12,                                     ! Daily Dry-Bulb Temperature Range {deltaC}
  23.4,                                   ! Humidity Indicating Conditions at Maximum Dry-Bulb {BasedOnField A3}
  98757,                                  ! Barometric Pressure {Pa}
  3.9,                                    ! Wind Speed {m/s}
  170,                                    ! Wind Direction {deg}
  0,                                      ! Sky Clearness
  0,                                      ! Rain Indicator
  0,                                      ! Snow Indicator
  21,                                     ! Day of Month
  7,                                      ! Month
  SummerDesignDay,                        ! Day Type
  0,                                      ! Daylight Saving Time Indicator
  Wetbulb,                                ! Humidity Indicating Type
  ,                                       ! Humidity Indicating Day Schedule Name
  DefaultMultipliers,                     ! Dry-Bulb Temperature Range Modifier Type
  ,                                       ! Dry-Bulb Temperature Range Modifier Schedule Name
  ASHRAETau,                              ! Solar Model Indicator
  ,                                       ! Beam Solar Day Schedule Name
  ,                                       ! Diffuse Solar Day Schedule Name
  0.433,                                  ! ASHRAE Taub {dimensionless}
  2.179;                                  ! ASHRAE Taud {dimensionless}

OS:ComponentData,
  {321bed4b-e69a-4bc5-a54a-1ecffdd5fe7b}, ! Handle
  Component Data 1,                       ! Name
  {9ab80f8a-9f3b-441f-a62a-e9259d666d57}, ! UUID
  {8a311756-913a-4373-ae06-71c64cd64671}, ! Version UUID
  1366310706,                             ! Creation Timestamp
  1366310706,                             ! Version Timestamp
  {abeb1c05-75cc-43b9-8134-2ebe744f395b}; ! Name of Object 1

