
OS:Version,
  {7e27164b-d46a-4be5-8541-c1c562f69ce4}, ! Handle
  0.9.3;                                  ! Version Identifier

OS:SizingPeriod:DesignDay,
  {54d5e885-ba3e-48c7-95ca-8d9f2b9e71f5}, ! Handle
  Laredo Intl Ap  Ut Ann Htg 99% Condns DB, ! Name
  3.2,                                    ! Maximum Dry-Bulb Temperature {C}
  0,                                      ! Daily Dry-Bulb Temperature Range {deltaC}
  3.2,                                    ! Humidity Indicating Conditions at Maximum Dry-Bulb {BasedOnField A3}
  99631,                                  ! Barometric Pressure {Pa}
  4.2,                                    ! Wind Speed {m/s}
  0,                                      ! Wind Direction {deg}
  0,                                      ! Sky Clearness
  0,                                      ! Rain Indicator
  0,                                      ! Snow Indicator
  21,                                     ! Day of Month
  1,                                      ! Month
  WinterDesignDay,                        ! Day Type
  0,                                      ! Daylight Saving Time Indicator
  Wetbulb,                                ! Humidity Indicating Type
  ,                                       ! Humidity Indicating Day Schedule Name
  DefaultMultipliers,                     ! Dry-Bulb Temperature Range Modifier Type
  ,                                       ! Dry-Bulb Temperature Range Modifier Schedule Name
  ASHRAEClearSky;                         ! Solar Model Indicator

OS:ComponentData,
  {52c7eb4c-607d-4d66-b552-469657b81ae0}, ! Handle
  Component Data 1,                       ! Name
  {23f6084e-2480-41a6-b6ef-f684053dc2a2}, ! UUID
  {73913438-2045-4f6f-a32d-e76bf54b8959}, ! Version UUID
  1366310782,                             ! Creation Timestamp
  1366310782,                             ! Version Timestamp
  {54d5e885-ba3e-48c7-95ca-8d9f2b9e71f5}; ! Name of Object 1

