
OS:Version,
  {45888872-73db-4acc-9270-af57b219ae56}, ! Handle
  0.9.3;                                  ! Version Identifier

OS:SizingPeriod:DesignDay,
  {68ed3332-575a-4cca-8810-1254fc17fa8e}, ! Handle
  Kingsville/NAS Ann Clg 1% Condns DP=>MDB, ! Name
  29,                                     ! Maximum Dry-Bulb Temperature {C}
  10.5,                                   ! Daily Dry-Bulb Temperature Range {deltaC}
  26,                                     ! Humidity Indicating Conditions at Maximum Dry-Bulb {BasedOnField A3}
  101145,                                 ! Barometric Pressure {Pa}
  5.4,                                    ! Wind Speed {m/s}
  130,                                    ! Wind Direction {deg}
  0,                                      ! Sky Clearness
  0,                                      ! Rain Indicator
  0,                                      ! Snow Indicator
  21,                                     ! Day of Month
  7,                                      ! Month
  SummerDesignDay,                        ! Day Type
  0,                                      ! Daylight Saving Time Indicator
  Dewpoint,                               ! Humidity Indicating Type
  ,                                       ! Humidity Indicating Day Schedule Name
  DefaultMultipliers,                     ! Dry-Bulb Temperature Range Modifier Type
  ,                                       ! Dry-Bulb Temperature Range Modifier Schedule Name
  ASHRAETau,                              ! Solar Model Indicator
  ,                                       ! Beam Solar Day Schedule Name
  ,                                       ! Diffuse Solar Day Schedule Name
  0.452,                                  ! ASHRAE Taub {dimensionless}
  2.153;                                  ! ASHRAE Taud {dimensionless}

OS:ComponentData,
  {ba20bb74-d95e-454b-94cb-67c72c754738}, ! Handle
  Component Data 1,                       ! Name
  {9a07bf23-04cc-47c1-8351-e1df28584ed3}, ! UUID
  {1c2e7d60-1b1c-406c-8f8d-cc61c1f73bae}, ! Version UUID
  1366310772,                             ! Creation Timestamp
  1366310772,                             ! Version Timestamp
  {68ed3332-575a-4cca-8810-1254fc17fa8e}; ! Name of Object 1

