
OS:Version,
  {952de0ec-57ea-42f2-9a16-3890b1beb689}, ! Handle
  0.9.3;                                  ! Version Identifier

OS:SizingPeriod:DesignDay,
  {e6fb5139-a561-4eae-a113-a5b22aa5494f}, ! Handle
  Billings Ann Htg Wind 99.6% Condns WS=>MCDB, ! Name
  2.5,                                    ! Maximum Dry-Bulb Temperature {C}
  0,                                      ! Daily Dry-Bulb Temperature Range {deltaC}
  2.5,                                    ! Humidity Indicating Conditions at Maximum Dry-Bulb {BasedOnField A3}
  88919,                                  ! Barometric Pressure {Pa}
  13.7,                                   ! Wind Speed {m/s}
  20,                                     ! Wind Direction {deg}
  0,                                      ! Sky Clearness
  0,                                      ! Rain Indicator
  0,                                      ! Snow Indicator
  21,                                     ! Day of Month
  1,                                      ! Month
  WinterDesignDay,                        ! Day Type
  0,                                      ! Daylight Saving Time Indicator
  Wetbulb,                                ! Humidity Indicating Type
  ,                                       ! Humidity Indicating Day Schedule Name
  DefaultMultipliers,                     ! Dry-Bulb Temperature Range Modifier Type
  ,                                       ! Dry-Bulb Temperature Range Modifier Schedule Name
  ASHRAEClearSky;                         ! Solar Model Indicator

