
OS:Version,
  {dc056de4-208a-470d-9139-2314e809470f}, ! Handle
  0.9.3;                                  ! Version Identifier

OS:SizingPeriod:DesignDay,
  {32bb575c-c639-43a5-84ab-0ed585e5b9e5}, ! Handle
  Bethel Airport Ann Clg .4% Condns WB=>MDB, ! Name
  20.6,                                   ! Maximum Dry-Bulb Temperature {C}
  7.7,                                    ! Daily Dry-Bulb Temperature Range {deltaC}
  15.7,                                   ! Humidity Indicating Conditions at Maximum Dry-Bulb {BasedOnField A3}
  100869,                                 ! Barometric Pressure {Pa}
  4.9,                                    ! Wind Speed {m/s}
  10,                                     ! Wind Direction {deg}
  0,                                      ! Sky Clearness
  0,                                      ! Rain Indicator
  0,                                      ! Snow Indicator
  21,                                     ! Day of Month
  7,                                      ! Month
  SummerDesignDay,                        ! Day Type
  0,                                      ! Daylight Saving Time Indicator
  Wetbulb,                                ! Humidity Indicating Type
  ,                                       ! Humidity Indicating Day Schedule Name
  DefaultMultipliers,                     ! Dry-Bulb Temperature Range Modifier Type
  ,                                       ! Dry-Bulb Temperature Range Modifier Schedule Name
  ASHRAETau,                              ! Solar Model Indicator
  ,                                       ! Beam Solar Day Schedule Name
  ,                                       ! Diffuse Solar Day Schedule Name
  0.383,                                  ! ASHRAE Taub {dimensionless}
  2.185;                                  ! ASHRAE Taud {dimensionless}

