
OS:Version,
  {090b23ff-ff39-4226-840f-78b784a1d6cc}, ! Handle
  0.9.3;                                  ! Version Identifier

OS:SizingPeriod:DesignDay,
  {6192d363-1578-42f9-94b6-71bc528b12a5}, ! Handle
  Louisville Standiford Field Ann Htg Wind 99% Condns WS=>MCDB, ! Name
  4.1,                                    ! Maximum Dry-Bulb Temperature {C}
  0,                                      ! Daily Dry-Bulb Temperature Range {deltaC}
  4.1,                                    ! Humidity Indicating Conditions at Maximum Dry-Bulb {BasedOnField A3}
  99571,                                  ! Barometric Pressure {Pa}
  10.6,                                   ! Wind Speed {m/s}
  270,                                    ! Wind Direction {deg}
  0,                                      ! Sky Clearness
  0,                                      ! Rain Indicator
  0,                                      ! Snow Indicator
  21,                                     ! Day of Month
  1,                                      ! Month
  WinterDesignDay,                        ! Day Type
  0,                                      ! Daylight Saving Time Indicator
  Wetbulb,                                ! Humidity Indicating Type
  ,                                       ! Humidity Indicating Day Schedule Name
  DefaultMultipliers,                     ! Dry-Bulb Temperature Range Modifier Type
  ,                                       ! Dry-Bulb Temperature Range Modifier Schedule Name
  ASHRAEClearSky;                         ! Solar Model Indicator

OS:ComponentData,
  {fc704bb2-77e2-4427-b698-9a08f543387b}, ! Handle
  Component Data 1,                       ! Name
  {a0d834bc-8fa7-4fd5-b38f-df65394b0f0a}, ! UUID
  {3f487cec-fe21-4e3e-92a4-6e9c1f8e28cb}, ! Version UUID
  1366307670,                             ! Creation Timestamp
  1366307670,                             ! Version Timestamp
  {6192d363-1578-42f9-94b6-71bc528b12a5}; ! Name of Object 1

