
OS:Version,
  {e3bdd3de-d633-4e78-a246-51e9c15ccb54}, ! Handle
  0.9.3;                                  ! Version Identifier

OS:SizingPeriod:DesignDay,
  {a8e37c61-a0f3-4358-a6b5-0a1aa6a193c7}, ! Handle
  Des Moines Intl Ap Ann Hum_n 99.6% Condns DP=>MCDB, ! Name
  -20.8,                                  ! Maximum Dry-Bulb Temperature {C}
  0,                                      ! Daily Dry-Bulb Temperature Range {deltaC}
  -26.6,                                  ! Humidity Indicating Conditions at Maximum Dry-Bulb {BasedOnField A3}
  97866,                                  ! Barometric Pressure {Pa}
  4.5,                                    ! Wind Speed {m/s}
  310,                                    ! Wind Direction {deg}
  0,                                      ! Sky Clearness
  0,                                      ! Rain Indicator
  0,                                      ! Snow Indicator
  21,                                     ! Day of Month
  1,                                      ! Month
  WinterDesignDay,                        ! Day Type
  0,                                      ! Daylight Saving Time Indicator
  Dewpoint,                               ! Humidity Indicating Type
  ,                                       ! Humidity Indicating Day Schedule Name
  DefaultMultipliers,                     ! Dry-Bulb Temperature Range Modifier Type
  ,                                       ! Dry-Bulb Temperature Range Modifier Schedule Name
  ASHRAEClearSky;                         ! Solar Model Indicator

OS:ComponentData,
  {05321e40-192e-4dc0-b01e-368b03c53fee}, ! Handle
  Component Data 1,                       ! Name
  {2e491ae1-fd08-44ee-83f2-62d86d9bd3f2}, ! UUID
  {63466998-1856-4ff7-b02e-1074e11b708b}, ! Version UUID
  1366307181,                             ! Creation Timestamp
  1366307181,                             ! Version Timestamp
  {a8e37c61-a0f3-4358-a6b5-0a1aa6a193c7}; ! Name of Object 1

