
OS:Version,
  {effdd529-e407-4717-8441-54af6f305f11}, ! Handle
  0.9.3;                                  ! Version Identifier

OS:SizingPeriod:DesignDay,
  {e3b4e6f2-a251-451c-9dfc-fd178505c9bd}, ! Handle
  Dothan Municipal Ap Ann Htg Wind 99.6% Condns WS=>MCDB, ! Name
  11.2,                                   ! Maximum Dry-Bulb Temperature {C}
  0,                                      ! Daily Dry-Bulb Temperature Range {deltaC}
  11.2,                                   ! Humidity Indicating Conditions at Maximum Dry-Bulb {BasedOnField A3}
  100153,                                 ! Barometric Pressure {Pa}
  10.4,                                   ! Wind Speed {m/s}
  320,                                    ! Wind Direction {deg}
  0,                                      ! Sky Clearness
  0,                                      ! Rain Indicator
  0,                                      ! Snow Indicator
  21,                                     ! Day of Month
  1,                                      ! Month
  WinterDesignDay,                        ! Day Type
  0,                                      ! Daylight Saving Time Indicator
  Wetbulb,                                ! Humidity Indicating Type
  ,                                       ! Humidity Indicating Day Schedule Name
  DefaultMultipliers,                     ! Dry-Bulb Temperature Range Modifier Type
  ,                                       ! Dry-Bulb Temperature Range Modifier Schedule Name
  ASHRAEClearSky;                         ! Solar Model Indicator

OS:ComponentData,
  {c772d09d-43bd-4ed9-b606-3fc8b8784201}, ! Handle
  Component Data 1,                       ! Name
  {42b9070f-acd6-4f5f-95f3-8daca32013d9}, ! UUID
  {6929873a-87bc-48c2-a1c2-6437330f69ff}, ! Version UUID
  1366305651,                             ! Creation Timestamp
  1366305651,                             ! Version Timestamp
  {e3b4e6f2-a251-451c-9dfc-fd178505c9bd}; ! Name of Object 1

