
OS:Version,
  {1e8473dd-958b-41f4-a187-058bc4db8b97}, ! Handle
  0.9.3;                                  ! Version Identifier

OS:SizingPeriod:DesignDay,
  {79e5522a-1cdb-4231-b111-5023e91db177}, ! Handle
  Cape Hatteras Ann Clg 1% Condns DB=>MWB, ! Name
  29.5,                                   ! Maximum Dry-Bulb Temperature {C}
  4.4,                                    ! Daily Dry-Bulb Temperature Range {deltaC}
  25.3,                                   ! Humidity Indicating Conditions at Maximum Dry-Bulb {BasedOnField A3}
  101289,                                 ! Barometric Pressure {Pa}
  4.4,                                    ! Wind Speed {m/s}
  0,                                      ! Wind Direction {deg}
  0,                                      ! Sky Clearness
  0,                                      ! Rain Indicator
  0,                                      ! Snow Indicator
  21,                                     ! Day of Month
  7,                                      ! Month
  SummerDesignDay,                        ! Day Type
  0,                                      ! Daylight Saving Time Indicator
  Wetbulb,                                ! Humidity Indicating Type
  ,                                       ! Humidity Indicating Day Schedule Name
  DefaultMultipliers,                     ! Dry-Bulb Temperature Range Modifier Type
  ,                                       ! Dry-Bulb Temperature Range Modifier Schedule Name
  ASHRAETau,                              ! Solar Model Indicator
  ,                                       ! Beam Solar Day Schedule Name
  ,                                       ! Diffuse Solar Day Schedule Name
  0.57,                                   ! ASHRAE Taub {dimensionless}
  1.801;                                  ! ASHRAE Taud {dimensionless}

OS:ComponentData,
  {123cfe1a-5718-4cc8-a224-c38a3ec74117}, ! Handle
  Component Data 1,                       ! Name
  {af320a43-d9da-40ba-9a07-eeb64acc7320}, ! UUID
  {f1ad5334-4033-4397-86eb-afa108234c8a}, ! Version UUID
  1366308872,                             ! Creation Timestamp
  1366308872,                             ! Version Timestamp
  {79e5522a-1cdb-4231-b111-5023e91db177}; ! Name of Object 1

