
OS:Version,
  {1bf25f11-2da6-46a2-88fa-74ae030ebc08}, ! Handle
  0.9.3;                                  ! Version Identifier

OS:SizingPeriod:DesignDay,
  {7639271d-d373-422c-afe6-9c30d6150363}, ! Handle
  Fallon Naas Ann Clg 2% Condns DB=>MWB,  ! Name
  34.5,                                   ! Maximum Dry-Bulb Temperature {C}
  19.4,                                   ! Daily Dry-Bulb Temperature Range {deltaC}
  16.1,                                   ! Humidity Indicating Conditions at Maximum Dry-Bulb {BasedOnField A3}
  87726,                                  ! Barometric Pressure {Pa}
  2.7,                                    ! Wind Speed {m/s}
  340,                                    ! Wind Direction {deg}
  0,                                      ! Sky Clearness
  0,                                      ! Rain Indicator
  0,                                      ! Snow Indicator
  21,                                     ! Day of Month
  7,                                      ! Month
  SummerDesignDay,                        ! Day Type
  0,                                      ! Daylight Saving Time Indicator
  Wetbulb,                                ! Humidity Indicating Type
  ,                                       ! Humidity Indicating Day Schedule Name
  DefaultMultipliers,                     ! Dry-Bulb Temperature Range Modifier Type
  ,                                       ! Dry-Bulb Temperature Range Modifier Schedule Name
  ASHRAETau,                              ! Solar Model Indicator
  ,                                       ! Beam Solar Day Schedule Name
  ,                                       ! Diffuse Solar Day Schedule Name
  0.428,                                  ! ASHRAE Taub {dimensionless}
  1.955;                                  ! ASHRAE Taud {dimensionless}

