
OS:Version,
  {ab6561b2-d4ab-42e4-84bb-a78604a5e60b}, ! Handle
  0.9.3;                                  ! Version Identifier

OS:SizingPeriod:DesignDay,
  {59518978-f30e-432c-9d94-70f618bac94f}, ! Handle
  Duluth International Arpt Ann Clg 2% Condns DP=>MDB, ! Name
  22.5,                                   ! Maximum Dry-Bulb Temperature {C}
  10.9,                                   ! Daily Dry-Bulb Temperature Range {deltaC}
  18.4,                                   ! Humidity Indicating Conditions at Maximum Dry-Bulb {BasedOnField A3}
  96230,                                  ! Barometric Pressure {Pa}
  5.2,                                    ! Wind Speed {m/s}
  220,                                    ! Wind Direction {deg}
  0,                                      ! Sky Clearness
  0,                                      ! Rain Indicator
  0,                                      ! Snow Indicator
  21,                                     ! Day of Month
  7,                                      ! Month
  SummerDesignDay,                        ! Day Type
  0,                                      ! Daylight Saving Time Indicator
  Dewpoint,                               ! Humidity Indicating Type
  ,                                       ! Humidity Indicating Day Schedule Name
  DefaultMultipliers,                     ! Dry-Bulb Temperature Range Modifier Type
  ,                                       ! Dry-Bulb Temperature Range Modifier Schedule Name
  ASHRAETau,                              ! Solar Model Indicator
  ,                                       ! Beam Solar Day Schedule Name
  ,                                       ! Diffuse Solar Day Schedule Name
  0.398,                                  ! ASHRAE Taub {dimensionless}
  2.218;                                  ! ASHRAE Taud {dimensionless}

OS:ComponentData,
  {350f84f0-0dcf-49d4-b0c7-ab4bd21eb8c1}, ! Handle
  Component Data 1,                       ! Name
  {a912b083-a680-4c40-84d8-353f9c23fcbf}, ! UUID
  {ca490dc8-09e1-4a79-8027-ff8762ddf2c3}, ! Version UUID
  1366308208,                             ! Creation Timestamp
  1366308208,                             ! Version Timestamp
  {59518978-f30e-432c-9d94-70f618bac94f}; ! Name of Object 1

