
OS:Version,
  {5554d4b2-581a-4211-af24-931e598a1ccf}, ! Handle
  0.9.3;                                  ! Version Identifier

OS:SizingPeriod:DesignDay,
  {8a6a405c-78b4-4d69-b87d-379eb6d8e791}, ! Handle
  Chicago Midway Ap Ann Hum_n 99% Condns DP=>MCDB, ! Name
  -14.5,                                  ! Maximum Dry-Bulb Temperature {C}
  0,                                      ! Daily Dry-Bulb Temperature Range {deltaC}
  -21.1,                                  ! Humidity Indicating Conditions at Maximum Dry-Bulb {BasedOnField A3}
  99110,                                  ! Barometric Pressure {Pa}
  5.3,                                    ! Wind Speed {m/s}
  300,                                    ! Wind Direction {deg}
  0,                                      ! Sky Clearness
  0,                                      ! Rain Indicator
  0,                                      ! Snow Indicator
  21,                                     ! Day of Month
  1,                                      ! Month
  WinterDesignDay,                        ! Day Type
  0,                                      ! Daylight Saving Time Indicator
  Dewpoint,                               ! Humidity Indicating Type
  ,                                       ! Humidity Indicating Day Schedule Name
  DefaultMultipliers,                     ! Dry-Bulb Temperature Range Modifier Type
  ,                                       ! Dry-Bulb Temperature Range Modifier Schedule Name
  ASHRAEClearSky;                         ! Solar Model Indicator

OS:ComponentData,
  {6af534c2-bb9c-49da-bb7a-327a123f491a}, ! Handle
  Component Data 1,                       ! Name
  {5e7f7d4f-8065-422f-a631-6040f07f532d}, ! UUID
  {eb6def73-8374-45a9-a914-d10bfb24f692}, ! Version UUID
  1366307342,                             ! Creation Timestamp
  1366307342,                             ! Version Timestamp
  {8a6a405c-78b4-4d69-b87d-379eb6d8e791}; ! Name of Object 1

