
OS:Version,
  {168be1f7-04c5-448f-85d6-e6fb09660533}, ! Handle
  0.9.3;                                  ! Version Identifier

OS:SizingPeriod:DesignDay,
  {e907adc8-167d-4eaf-b673-64c1e221cf38}, ! Handle
  Fort Dodge  Awos Ann Clg 2% Condns DP=>MDB, ! Name
  27.3,                                   ! Maximum Dry-Bulb Temperature {C}
  10.7,                                   ! Daily Dry-Bulb Temperature Range {deltaC}
  22,                                     ! Humidity Indicating Conditions at Maximum Dry-Bulb {BasedOnField A3}
  97132,                                  ! Barometric Pressure {Pa}
  5.4,                                    ! Wind Speed {m/s}
  200,                                    ! Wind Direction {deg}
  0,                                      ! Sky Clearness
  0,                                      ! Rain Indicator
  0,                                      ! Snow Indicator
  21,                                     ! Day of Month
  7,                                      ! Month
  SummerDesignDay,                        ! Day Type
  0,                                      ! Daylight Saving Time Indicator
  Dewpoint,                               ! Humidity Indicating Type
  ,                                       ! Humidity Indicating Day Schedule Name
  DefaultMultipliers,                     ! Dry-Bulb Temperature Range Modifier Type
  ,                                       ! Dry-Bulb Temperature Range Modifier Schedule Name
  ASHRAETau,                              ! Solar Model Indicator
  ,                                       ! Beam Solar Day Schedule Name
  ,                                       ! Diffuse Solar Day Schedule Name
  0.409,                                  ! ASHRAE Taub {dimensionless}
  2.217;                                  ! ASHRAE Taud {dimensionless}

OS:ComponentData,
  {ef3fff11-d375-4f38-b218-dd408a0da6f6}, ! Handle
  Component Data 1,                       ! Name
  {97c47969-e692-428c-a924-6c751ed7fe3b}, ! UUID
  {95d73822-9aca-4777-86e9-9a4a1fb38a12}, ! Version UUID
  1366307198,                             ! Creation Timestamp
  1366307198,                             ! Version Timestamp
  {e907adc8-167d-4eaf-b673-64c1e221cf38}; ! Name of Object 1

