
OS:Version,
  {61b9eabc-ee14-4d43-898a-d6181f400090}, ! Handle
  0.9.3;                                  ! Version Identifier

OS:SizingPeriod:DesignDay,
  {1e0458ba-36da-4aa1-98ba-7c1bdb3171f7}, ! Handle
  Charlotte Ann Clg .4% Condns DB=>MWB,   ! Name
  34.5,                                   ! Maximum Dry-Bulb Temperature {C}
  10.1,                                   ! Daily Dry-Bulb Temperature Range {deltaC}
  23.7,                                   ! Humidity Indicating Conditions at Maximum Dry-Bulb {BasedOnField A3}
  98545,                                  ! Barometric Pressure {Pa}
  3.3,                                    ! Wind Speed {m/s}
  240,                                    ! Wind Direction {deg}
  0,                                      ! Sky Clearness
  0,                                      ! Rain Indicator
  0,                                      ! Snow Indicator
  21,                                     ! Day of Month
  7,                                      ! Month
  SummerDesignDay,                        ! Day Type
  0,                                      ! Daylight Saving Time Indicator
  Wetbulb,                                ! Humidity Indicating Type
  ,                                       ! Humidity Indicating Day Schedule Name
  DefaultMultipliers,                     ! Dry-Bulb Temperature Range Modifier Type
  ,                                       ! Dry-Bulb Temperature Range Modifier Schedule Name
  ASHRAETau,                              ! Solar Model Indicator
  ,                                       ! Beam Solar Day Schedule Name
  ,                                       ! Diffuse Solar Day Schedule Name
  0.557,                                  ! ASHRAE Taub {dimensionless}
  1.762;                                  ! ASHRAE Taud {dimensionless}

OS:ComponentData,
  {e624e78d-a342-478f-b2d4-89e956c90d0f}, ! Handle
  Component Data 1,                       ! Name
  {b1b4333b-b26c-4705-8af4-e1320f2884d6}, ! UUID
  {14a4629b-5247-4b84-a05a-9c70caa3b15b}, ! Version UUID
  1366308884,                             ! Creation Timestamp
  1366308884,                             ! Version Timestamp
  {1e0458ba-36da-4aa1-98ba-7c1bdb3171f7}; ! Name of Object 1

