
OS:Version,
  {071e6b92-5320-48e1-b55e-89fa6984394b}, ! Handle
  0.9.3;                                  ! Version Identifier

OS:SizingPeriod:DesignDay,
  {de6d978e-69d5-4056-a262-9219bcd8b05a}, ! Handle
  Lemoore Reeves Nas Ann Clg .4% Condns WB=>MDB, ! Name
  36.5,                                   ! Maximum Dry-Bulb Temperature {C}
  18.6,                                   ! Daily Dry-Bulb Temperature Range {deltaC}
  24,                                     ! Humidity Indicating Conditions at Maximum Dry-Bulb {BasedOnField A3}
  100451,                                 ! Barometric Pressure {Pa}
  2.8,                                    ! Wind Speed {m/s}
  0,                                      ! Wind Direction {deg}
  0,                                      ! Sky Clearness
  0,                                      ! Rain Indicator
  0,                                      ! Snow Indicator
  21,                                     ! Day of Month
  7,                                      ! Month
  SummerDesignDay,                        ! Day Type
  0,                                      ! Daylight Saving Time Indicator
  Wetbulb,                                ! Humidity Indicating Type
  ,                                       ! Humidity Indicating Day Schedule Name
  DefaultMultipliers,                     ! Dry-Bulb Temperature Range Modifier Type
  ,                                       ! Dry-Bulb Temperature Range Modifier Schedule Name
  ASHRAETau,                              ! Solar Model Indicator
  ,                                       ! Beam Solar Day Schedule Name
  ,                                       ! Diffuse Solar Day Schedule Name
  0.413,                                  ! ASHRAE Taub {dimensionless}
  2.187;                                  ! ASHRAE Taud {dimensionless}

OS:ComponentData,
  {e3933499-60ba-49b8-8d9f-55339f5231f5}, ! Handle
  Component Data 1,                       ! Name
  {35d34325-7616-4935-b228-3d5a1b287155}, ! UUID
  {cfb8acc9-d119-4775-ac45-62b499360667}, ! Version UUID
  1366306461,                             ! Creation Timestamp
  1366306461,                             ! Version Timestamp
  {de6d978e-69d5-4056-a262-9219bcd8b05a}; ! Name of Object 1

