
OS:Version,
  {edfb7416-e850-477d-b470-9c44239588fa}, ! Handle
  0.9.3;                                  ! Version Identifier

OS:SizingPeriod:DesignDay,
  {a411771c-da7b-4e8f-bb94-8372e356204a}, ! Handle
  HOUGHTON Ann Htg Wind 99% Condns WS=>MCDB, ! Name
  -7.9,                                   ! Maximum Dry-Bulb Temperature {C}
  0,                                      ! Daily Dry-Bulb Temperature Range {deltaC}
  -7.9,                                   ! Humidity Indicating Conditions at Maximum Dry-Bulb {BasedOnField A3}
  97435,                                  ! Barometric Pressure {Pa}
  12,                                     ! Wind Speed {m/s}
  310,                                    ! Wind Direction {deg}
  0,                                      ! Sky Clearness
  0,                                      ! Rain Indicator
  0,                                      ! Snow Indicator
  21,                                     ! Day of Month
  1,                                      ! Month
  WinterDesignDay,                        ! Day Type
  0,                                      ! Daylight Saving Time Indicator
  Wetbulb,                                ! Humidity Indicating Type
  ,                                       ! Humidity Indicating Day Schedule Name
  DefaultMultipliers,                     ! Dry-Bulb Temperature Range Modifier Type
  ,                                       ! Dry-Bulb Temperature Range Modifier Schedule Name
  ASHRAEClearSky;                         ! Solar Model Indicator

OS:ComponentData,
  {75fccd48-55fa-4bba-bddd-58f0649b4e73}, ! Handle
  Component Data 1,                       ! Name
  {27ea2c3c-8cf4-4258-aa6d-93a4b7c93ac7}, ! UUID
  {e7f090f5-1d4f-4e86-8631-6d4c5c937675}, ! Version UUID
  1366308029,                             ! Creation Timestamp
  1366308029,                             ! Version Timestamp
  {a411771c-da7b-4e8f-bb94-8372e356204a}; ! Name of Object 1

