
OS:Version,
  {25e47fcc-b23b-4e06-8de8-542551cb6814}, ! Handle
  0.9.3;                                  ! Version Identifier

OS:SizingPeriod:DesignDay,
  {5c4edaa2-38c6-4ca0-b01d-db8f3bca85fc}, ! Handle
  Arcata Airport Ann Clg .4% Condns WB=>MDB, ! Name
  19.5,                                   ! Maximum Dry-Bulb Temperature {C}
  6.5,                                    ! Daily Dry-Bulb Temperature Range {deltaC}
  16.8,                                   ! Humidity Indicating Conditions at Maximum Dry-Bulb {BasedOnField A3}
  100582,                                 ! Barometric Pressure {Pa}
  4.3,                                    ! Wind Speed {m/s}
  320,                                    ! Wind Direction {deg}
  0,                                      ! Sky Clearness
  0,                                      ! Rain Indicator
  0,                                      ! Snow Indicator
  21,                                     ! Day of Month
  8,                                      ! Month
  SummerDesignDay,                        ! Day Type
  0,                                      ! Daylight Saving Time Indicator
  Wetbulb,                                ! Humidity Indicating Type
  ,                                       ! Humidity Indicating Day Schedule Name
  DefaultMultipliers,                     ! Dry-Bulb Temperature Range Modifier Type
  ,                                       ! Dry-Bulb Temperature Range Modifier Schedule Name
  ASHRAETau,                              ! Solar Model Indicator
  ,                                       ! Beam Solar Day Schedule Name
  ,                                       ! Diffuse Solar Day Schedule Name
  0.365,                                  ! ASHRAE Taub {dimensionless}
  2.513;                                  ! ASHRAE Taud {dimensionless}

OS:ComponentData,
  {40701ec4-99af-4e07-afaf-8de761377aab}, ! Handle
  Component Data 1,                       ! Name
  {dd02606c-80bf-42cd-a4c3-b0c69aadc306}, ! UUID
  {aa7f9e0b-3ef9-40bb-8720-69b1ce17fa15}, ! Version UUID
  1366306354,                             ! Creation Timestamp
  1366306354,                             ! Version Timestamp
  {5c4edaa2-38c6-4ca0-b01d-db8f3bca85fc}; ! Name of Object 1

