
OS:Version,
  {d3741274-4734-4a3d-9e03-4c225b034786}, ! Handle
  0.9.3;                                  ! Version Identifier

OS:SizingPeriod:DesignDay,
  {6c0e5563-d1d4-4424-9612-49da36d9f000}, ! Handle
  Baton Rouge Ryan Arpt Ann Htg 99.6% Condns DB, ! Name
  -2.5,                                   ! Maximum Dry-Bulb Temperature {C}
  0,                                      ! Daily Dry-Bulb Temperature Range {deltaC}
  -2.5,                                   ! Humidity Indicating Conditions at Maximum Dry-Bulb {BasedOnField A3}
  101085,                                 ! Barometric Pressure {Pa}
  2.2,                                    ! Wind Speed {m/s}
  0,                                      ! Wind Direction {deg}
  0,                                      ! Sky Clearness
  0,                                      ! Rain Indicator
  0,                                      ! Snow Indicator
  21,                                     ! Day of Month
  1,                                      ! Month
  WinterDesignDay,                        ! Day Type
  0,                                      ! Daylight Saving Time Indicator
  Wetbulb,                                ! Humidity Indicating Type
  ,                                       ! Humidity Indicating Day Schedule Name
  DefaultMultipliers,                     ! Dry-Bulb Temperature Range Modifier Type
  ,                                       ! Dry-Bulb Temperature Range Modifier Schedule Name
  ASHRAEClearSky;                         ! Solar Model Indicator

OS:ComponentData,
  {0ff3f871-ed69-4b70-98d5-e03b2a6f71e8}, ! Handle
  Component Data 1,                       ! Name
  {526e49b0-abf7-4f92-8445-4ce1dcd35ebf}, ! UUID
  {5663cd0a-a053-4c26-a221-7ec70bdef49d}, ! Version UUID
  1366307706,                             ! Creation Timestamp
  1366307706,                             ! Version Timestamp
  {6c0e5563-d1d4-4424-9612-49da36d9f000}; ! Name of Object 1

