
OS:Version,
  {50495481-cf4a-4817-ab8e-725f58498cb0}, ! Handle
  0.9.3;                                  ! Version Identifier

OS:SizingPeriod:DesignDay,
  {ce53b6c8-1355-4698-a521-8dfd94fddcae}, ! Handle
  ASHEVILLE Ann Clg .4% Condns DP=>MDB,   ! Name
  25.3,                                   ! Maximum Dry-Bulb Temperature {C}
  10.7,                                   ! Daily Dry-Bulb Temperature Range {deltaC}
  22,                                     ! Humidity Indicating Conditions at Maximum Dry-Bulb {BasedOnField A3}
  93632,                                  ! Barometric Pressure {Pa}
  3.8,                                    ! Wind Speed {m/s}
  340,                                    ! Wind Direction {deg}
  0,                                      ! Sky Clearness
  0,                                      ! Rain Indicator
  0,                                      ! Snow Indicator
  21,                                     ! Day of Month
  7,                                      ! Month
  SummerDesignDay,                        ! Day Type
  0,                                      ! Daylight Saving Time Indicator
  Dewpoint,                               ! Humidity Indicating Type
  ,                                       ! Humidity Indicating Day Schedule Name
  DefaultMultipliers,                     ! Dry-Bulb Temperature Range Modifier Type
  ,                                       ! Dry-Bulb Temperature Range Modifier Schedule Name
  ASHRAETau,                              ! Solar Model Indicator
  ,                                       ! Beam Solar Day Schedule Name
  ,                                       ! Diffuse Solar Day Schedule Name
  0.517,                                  ! ASHRAE Taub {dimensionless}
  1.849;                                  ! ASHRAE Taud {dimensionless}

OS:ComponentData,
  {5210783b-8665-4a14-a957-378af5000b70}, ! Handle
  Component Data 1,                       ! Name
  {ac364784-9eba-4641-bd43-d9d4834bd865}, ! UUID
  {e1d1902d-4ee3-4432-a25a-e14bec882393}, ! Version UUID
  1366308860,                             ! Creation Timestamp
  1366308860,                             ! Version Timestamp
  {ce53b6c8-1355-4698-a521-8dfd94fddcae}; ! Name of Object 1

