
OS:Version,
  {083f5d8a-0fb4-4ade-9584-127ba484509f}, ! Handle
  0.9.3;                                  ! Version Identifier

OS:SizingPeriod:DesignDay,
  {314b40be-3a21-4917-9370-59774e95fc08}, ! Handle
  LEXINGTON Ann Htg 99% Condns DB,        ! Name
  -10.7,                                  ! Maximum Dry-Bulb Temperature {C}
  0,                                      ! Daily Dry-Bulb Temperature Range {deltaC}
  -10.7,                                  ! Humidity Indicating Conditions at Maximum Dry-Bulb {BasedOnField A3}
  97761,                                  ! Barometric Pressure {Pa}
  3.5,                                    ! Wind Speed {m/s}
  290,                                    ! Wind Direction {deg}
  0,                                      ! Sky Clearness
  0,                                      ! Rain Indicator
  0,                                      ! Snow Indicator
  21,                                     ! Day of Month
  1,                                      ! Month
  WinterDesignDay,                        ! Day Type
  0,                                      ! Daylight Saving Time Indicator
  Wetbulb,                                ! Humidity Indicating Type
  ,                                       ! Humidity Indicating Day Schedule Name
  DefaultMultipliers,                     ! Dry-Bulb Temperature Range Modifier Type
  ,                                       ! Dry-Bulb Temperature Range Modifier Schedule Name
  ASHRAEClearSky;                         ! Solar Model Indicator

OS:ComponentData,
  {929df965-8928-418e-a77a-f83a4c18d642}, ! Handle
  Component Data 1,                       ! Name
  {95415f3c-2fd0-42b6-9755-eecd0d623298}, ! UUID
  {86f930c2-f3ba-4355-9a74-510849850ea6}, ! Version UUID
  1366307655,                             ! Creation Timestamp
  1366307655,                             ! Version Timestamp
  {314b40be-3a21-4917-9370-59774e95fc08}; ! Name of Object 1

