
OS:Version,
  {a964aa7e-a9b4-44f8-98fe-c486487a7f0e}, ! Handle
  0.9.3;                                  ! Version Identifier

OS:SizingPeriod:DesignDay,
  {f171eba6-93a4-407f-b2b3-a193d269725d}, ! Handle
  ASHEVILLE Ann Htg 99% Condns DB,        ! Name
  -7.5,                                   ! Maximum Dry-Bulb Temperature {C}
  0,                                      ! Daily Dry-Bulb Temperature Range {deltaC}
  -7.5,                                   ! Humidity Indicating Conditions at Maximum Dry-Bulb {BasedOnField A3}
  93632,                                  ! Barometric Pressure {Pa}
  5.4,                                    ! Wind Speed {m/s}
  340,                                    ! Wind Direction {deg}
  0,                                      ! Sky Clearness
  0,                                      ! Rain Indicator
  0,                                      ! Snow Indicator
  21,                                     ! Day of Month
  1,                                      ! Month
  WinterDesignDay,                        ! Day Type
  0,                                      ! Daylight Saving Time Indicator
  Wetbulb,                                ! Humidity Indicating Type
  ,                                       ! Humidity Indicating Day Schedule Name
  DefaultMultipliers,                     ! Dry-Bulb Temperature Range Modifier Type
  ,                                       ! Dry-Bulb Temperature Range Modifier Schedule Name
  ASHRAEClearSky;                         ! Solar Model Indicator

OS:ComponentData,
  {71680c84-91cb-4c9c-b5bf-45ea8da242f4}, ! Handle
  Component Data 1,                       ! Name
  {19d25860-317d-4696-b92c-ab7ac1156d03}, ! UUID
  {d7edd9cb-ea20-462c-b7bf-c4a497c9f3ae}, ! Version UUID
  1366308859,                             ! Creation Timestamp
  1366308859,                             ! Version Timestamp
  {f171eba6-93a4-407f-b2b3-a193d269725d}; ! Name of Object 1

