
OS:Version,
  {0138c92d-e3dd-411e-8cfa-2b7ef4e71aff}, ! Handle
  0.9.3;                                  ! Version Identifier

OS:SizingPeriod:DesignDay,
  {c5de0be7-1163-48db-b144-1e86066cc4f9}, ! Handle
  Burbank Glendale Passadena Ap Ann Clg .4% Condns Enth=>MDB, ! Name
  32.3,                                   ! Maximum Dry-Bulb Temperature {C}
  13.2,                                   ! Daily Dry-Bulb Temperature Range {deltaC}
  68800,                                  ! Humidity Indicating Conditions at Maximum Dry-Bulb {BasedOnField A3}
  98639,                                  ! Barometric Pressure {Pa}
  3.9,                                    ! Wind Speed {m/s}
  170,                                    ! Wind Direction {deg}
  0,                                      ! Sky Clearness
  0,                                      ! Rain Indicator
  0,                                      ! Snow Indicator
  21,                                     ! Day of Month
  8,                                      ! Month
  SummerDesignDay,                        ! Day Type
  0,                                      ! Daylight Saving Time Indicator
  Enthalpy,                               ! Humidity Indicating Type
  ,                                       ! Humidity Indicating Day Schedule Name
  DefaultMultipliers,                     ! Dry-Bulb Temperature Range Modifier Type
  ,                                       ! Dry-Bulb Temperature Range Modifier Schedule Name
  ASHRAETau,                              ! Solar Model Indicator
  ,                                       ! Beam Solar Day Schedule Name
  ,                                       ! Diffuse Solar Day Schedule Name
  0.436,                                  ! ASHRAE Taub {dimensionless}
  2.106;                                  ! ASHRAE Taud {dimensionless}

OS:ComponentData,
  {ca472ef3-d02a-4ea2-9ffb-980392fe7555}, ! Handle
  Component Data 1,                       ! Name
  {a31a1577-104b-44de-bff4-9ec62fb6f901}, ! UUID
  {76a07705-e91e-4385-a99c-fc9a305ad6d6}, ! Version UUID
  1366306393,                             ! Creation Timestamp
  1366306393,                             ! Version Timestamp
  {c5de0be7-1163-48db-b144-1e86066cc4f9}; ! Name of Object 1

