
OS:Version,
  {c54becb0-0af2-4b8a-acf1-84123a30b21e}, ! Handle
  0.9.3;                                  ! Version Identifier

OS:SizingPeriod:DesignDay,
  {5447a273-beee-4da7-9102-dbb98789c870}, ! Handle
  Antigo Lang Awos Ann Clg 1% Condns Enth=>MDB, ! Name
  25.6,                                   ! Maximum Dry-Bulb Temperature {C}
  12.1,                                   ! Daily Dry-Bulb Temperature Range {deltaC}
  70900,                                  ! Humidity Indicating Conditions at Maximum Dry-Bulb {BasedOnField A3}
  95874,                                  ! Barometric Pressure {Pa}
  4.8,                                    ! Wind Speed {m/s}
  210,                                    ! Wind Direction {deg}
  0,                                      ! Sky Clearness
  0,                                      ! Rain Indicator
  0,                                      ! Snow Indicator
  21,                                     ! Day of Month
  7,                                      ! Month
  SummerDesignDay,                        ! Day Type
  0,                                      ! Daylight Saving Time Indicator
  Enthalpy,                               ! Humidity Indicating Type
  ,                                       ! Humidity Indicating Day Schedule Name
  DefaultMultipliers,                     ! Dry-Bulb Temperature Range Modifier Type
  ,                                       ! Dry-Bulb Temperature Range Modifier Schedule Name
  ASHRAETau,                              ! Solar Model Indicator
  ,                                       ! Beam Solar Day Schedule Name
  ,                                       ! Diffuse Solar Day Schedule Name
  0.403,                                  ! ASHRAE Taub {dimensionless}
  2.215;                                  ! ASHRAE Taud {dimensionless}

OS:ComponentData,
  {613fb3d3-1286-4ec2-80a3-bce48bd340f7}, ! Handle
  Component Data 1,                       ! Name
  {7d73d227-f0e5-4dcc-93b7-0fa1484b2342}, ! UUID
  {ea9daa9d-ebf7-41be-a4e1-ee5d79aa5498}, ! Version UUID
  1366311481,                             ! Creation Timestamp
  1366311481,                             ! Version Timestamp
  {5447a273-beee-4da7-9102-dbb98789c870}; ! Name of Object 1

