
OS:Version,
  {fac077fc-46a1-427a-9ac8-484acd50db0d}, ! Handle
  0.9.3;                                  ! Version Identifier

OS:SizingPeriod:DesignDay,
  {8b52c207-4778-402b-a6bd-834090d59e72}, ! Handle
  Harlingen Rio Grande Valley I Ann Hum_n 99% Condns DP=>MCDB, ! Name
  10.3,                                   ! Maximum Dry-Bulb Temperature {C}
  0,                                      ! Daily Dry-Bulb Temperature Range {deltaC}
  -2.1,                                   ! Humidity Indicating Conditions at Maximum Dry-Bulb {BasedOnField A3}
  101205,                                 ! Barometric Pressure {Pa}
  6.1,                                    ! Wind Speed {m/s}
  340,                                    ! Wind Direction {deg}
  0,                                      ! Sky Clearness
  0,                                      ! Rain Indicator
  0,                                      ! Snow Indicator
  21,                                     ! Day of Month
  12,                                     ! Month
  WinterDesignDay,                        ! Day Type
  0,                                      ! Daylight Saving Time Indicator
  Dewpoint,                               ! Humidity Indicating Type
  ,                                       ! Humidity Indicating Day Schedule Name
  DefaultMultipliers,                     ! Dry-Bulb Temperature Range Modifier Type
  ,                                       ! Dry-Bulb Temperature Range Modifier Schedule Name
  ASHRAEClearSky;                         ! Solar Model Indicator

OS:ComponentData,
  {81b5da6e-ec84-4227-b2c1-cdc7ca7ee687}, ! Handle
  Component Data 1,                       ! Name
  {67766ca3-a646-4e2f-b1b1-94bc2d509b81}, ! UUID
  {93a15878-6cba-48bc-99bc-6561de44176a}, ! Version UUID
  1366310727,                             ! Creation Timestamp
  1366310727,                             ! Version Timestamp
  {8b52c207-4778-402b-a6bd-834090d59e72}; ! Name of Object 1

