
OS:Version,
  {cba652ce-1193-44f9-9454-0da0444f7c8f}, ! Handle
  0.9.3;                                  ! Version Identifier

OS:SizingPeriod:DesignDay,
  {37f95a53-e0a1-4dc9-8596-9639295fbd72}, ! Handle
  Dubois Faa Ap Ann Clg 2% Condns DP=>MDB, ! Name
  23,                                     ! Maximum Dry-Bulb Temperature {C}
  10.4,                                   ! Daily Dry-Bulb Temperature Range {deltaC}
  19.6,                                   ! Humidity Indicating Conditions at Maximum Dry-Bulb {BasedOnField A3}
  94856,                                  ! Barometric Pressure {Pa}
  4.4,                                    ! Wind Speed {m/s}
  250,                                    ! Wind Direction {deg}
  0,                                      ! Sky Clearness
  0,                                      ! Rain Indicator
  0,                                      ! Snow Indicator
  21,                                     ! Day of Month
  7,                                      ! Month
  SummerDesignDay,                        ! Day Type
  0,                                      ! Daylight Saving Time Indicator
  Dewpoint,                               ! Humidity Indicating Type
  ,                                       ! Humidity Indicating Day Schedule Name
  DefaultMultipliers,                     ! Dry-Bulb Temperature Range Modifier Type
  ,                                       ! Dry-Bulb Temperature Range Modifier Schedule Name
  ASHRAETau,                              ! Solar Model Indicator
  ,                                       ! Beam Solar Day Schedule Name
  ,                                       ! Diffuse Solar Day Schedule Name
  0.441,                                  ! ASHRAE Taub {dimensionless}
  2.051;                                  ! ASHRAE Taud {dimensionless}

OS:ComponentData,
  {d1caa5c8-2640-4fe0-934b-ba2c0210a593}, ! Handle
  Component Data 1,                       ! Name
  {ae091854-d693-4dec-afe6-248932412f88}, ! UUID
  {e9854669-eaaf-44e2-adf8-aa26e333c7ef}, ! Version UUID
  1366310161,                             ! Creation Timestamp
  1366310161,                             ! Version Timestamp
  {37f95a53-e0a1-4dc9-8596-9639295fbd72}; ! Name of Object 1

