
OS:Version,
  {bc86d9aa-9da7-4bcf-9643-7b2c3836f36d}, ! Handle
  0.9.3;                                  ! Version Identifier

OS:SizingPeriod:DesignDay,
  {c7884687-0417-451c-b989-856cab99844f}, ! Handle
  Clayton Municipal Airpark Ann Hum_n 99.6% Condns DP=>MCDB, ! Name
  -7.7,                                   ! Maximum Dry-Bulb Temperature {C}
  0,                                      ! Daily Dry-Bulb Temperature Range {deltaC}
  -20.2,                                  ! Humidity Indicating Conditions at Maximum Dry-Bulb {BasedOnField A3}
  84431,                                  ! Barometric Pressure {Pa}
  4.2,                                    ! Wind Speed {m/s}
  30,                                     ! Wind Direction {deg}
  0,                                      ! Sky Clearness
  0,                                      ! Rain Indicator
  0,                                      ! Snow Indicator
  21,                                     ! Day of Month
  12,                                     ! Month
  WinterDesignDay,                        ! Day Type
  0,                                      ! Daylight Saving Time Indicator
  Dewpoint,                               ! Humidity Indicating Type
  ,                                       ! Humidity Indicating Day Schedule Name
  DefaultMultipliers,                     ! Dry-Bulb Temperature Range Modifier Type
  ,                                       ! Dry-Bulb Temperature Range Modifier Schedule Name
  ASHRAEClearSky;                         ! Solar Model Indicator

OS:ComponentData,
  {265c45d1-734d-4b76-9c55-634e191fd422}, ! Handle
  Component Data 1,                       ! Name
  {cd50264f-8481-4913-b868-a7d9449a5dc4}, ! UUID
  {760910ce-0be5-4ea5-ab50-c6661f63b044}, ! Version UUID
  1366309385,                             ! Creation Timestamp
  1366309385,                             ! Version Timestamp
  {c7884687-0417-451c-b989-856cab99844f}; ! Name of Object 1

