
OS:Version,
  {3c30453f-99b1-4f41-a4ff-71818722943e}, ! Handle
  0.9.3;                                  ! Version Identifier

OS:SizingPeriod:DesignDay,
  {f65a2a54-f47d-438f-b225-455295dec659}, ! Handle
  EAGLE Ann Clg 1% Condns WB=>MDB,        ! Name
  24.5,                                   ! Maximum Dry-Bulb Temperature {C}
  19,                                     ! Daily Dry-Bulb Temperature Range {deltaC}
  15.3,                                   ! Humidity Indicating Conditions at Maximum Dry-Bulb {BasedOnField A3}
  79643,                                  ! Barometric Pressure {Pa}
  4.9,                                    ! Wind Speed {m/s}
  240,                                    ! Wind Direction {deg}
  0,                                      ! Sky Clearness
  0,                                      ! Rain Indicator
  0,                                      ! Snow Indicator
  21,                                     ! Day of Month
  7,                                      ! Month
  SummerDesignDay,                        ! Day Type
  0,                                      ! Daylight Saving Time Indicator
  Wetbulb,                                ! Humidity Indicating Type
  ,                                       ! Humidity Indicating Day Schedule Name
  DefaultMultipliers,                     ! Dry-Bulb Temperature Range Modifier Type
  ,                                       ! Dry-Bulb Temperature Range Modifier Schedule Name
  ASHRAETau,                              ! Solar Model Indicator
  ,                                       ! Beam Solar Day Schedule Name
  ,                                       ! Diffuse Solar Day Schedule Name
  0.4,                                    ! ASHRAE Taub {dimensionless}
  2.165;                                  ! ASHRAE Taud {dimensionless}

OS:ComponentData,
  {e20272fa-c4d9-413e-9282-9877bcb23e1e}, ! Handle
  Component Data 1,                       ! Name
  {84c4bfa4-07e2-4f80-a0ef-20a73098256b}, ! UUID
  {84561e60-7e91-4dcb-826c-971cca9d23f6}, ! Version UUID
  1366306683,                             ! Creation Timestamp
  1366306683,                             ! Version Timestamp
  {f65a2a54-f47d-438f-b225-455295dec659}; ! Name of Object 1

