
OS:Version,
  {d69946d3-815b-49df-94ac-0670fb65ace7}, ! Handle
  0.9.3;                                  ! Version Identifier

OS:SizingPeriod:DesignDay,
  {ac4f8f93-0ea8-4863-a16a-1baa5936456d}, ! Handle
  Astoria Regional Airport Ann Htg 99% Condns DB, ! Name
  -1,                                     ! Maximum Dry-Bulb Temperature {C}
  0,                                      ! Daily Dry-Bulb Temperature Range {deltaC}
  -1,                                     ! Humidity Indicating Conditions at Maximum Dry-Bulb {BasedOnField A3}
  101289,                                 ! Barometric Pressure {Pa}
  3.4,                                    ! Wind Speed {m/s}
  90,                                     ! Wind Direction {deg}
  0,                                      ! Sky Clearness
  0,                                      ! Rain Indicator
  0,                                      ! Snow Indicator
  21,                                     ! Day of Month
  12,                                     ! Month
  WinterDesignDay,                        ! Day Type
  0,                                      ! Daylight Saving Time Indicator
  Wetbulb,                                ! Humidity Indicating Type
  ,                                       ! Humidity Indicating Day Schedule Name
  DefaultMultipliers,                     ! Dry-Bulb Temperature Range Modifier Type
  ,                                       ! Dry-Bulb Temperature Range Modifier Schedule Name
  ASHRAEClearSky;                         ! Solar Model Indicator

OS:ComponentData,
  {03a9c1a0-964b-4502-8b12-4c6ad5633113}, ! Handle
  Component Data 1,                       ! Name
  {0dceeaaa-1c16-4359-af00-d0a17377a7fe}, ! UUID
  {ef15f9f6-00d2-4781-a7d6-fac4825219e0}, ! Version UUID
  1366309976,                             ! Creation Timestamp
  1366309976,                             ! Version Timestamp
  {ac4f8f93-0ea8-4863-a16a-1baa5936456d}; ! Name of Object 1

