
OS:Version,
  {0c2647e6-ae9c-4893-9f99-6ba30a65c71f}, ! Handle
  0.9.3;                                  ! Version Identifier

OS:SizingPeriod:DesignDay,
  {02a2f5ec-a2c8-4911-9ac3-00e056a17251}, ! Handle
  Daytona Beach Ann Clg .4% Condns DB=>MWB, ! Name
  33.7,                                   ! Maximum Dry-Bulb Temperature {C}
  9,                                      ! Daily Dry-Bulb Temperature Range {deltaC}
  25,                                     ! Humidity Indicating Conditions at Maximum Dry-Bulb {BasedOnField A3}
  101193,                                 ! Barometric Pressure {Pa}
  4.4,                                    ! Wind Speed {m/s}
  230,                                    ! Wind Direction {deg}
  0,                                      ! Sky Clearness
  0,                                      ! Rain Indicator
  0,                                      ! Snow Indicator
  21,                                     ! Day of Month
  7,                                      ! Month
  SummerDesignDay,                        ! Day Type
  0,                                      ! Daylight Saving Time Indicator
  Wetbulb,                                ! Humidity Indicating Type
  ,                                       ! Humidity Indicating Day Schedule Name
  DefaultMultipliers,                     ! Dry-Bulb Temperature Range Modifier Type
  ,                                       ! Dry-Bulb Temperature Range Modifier Schedule Name
  ASHRAETau,                              ! Solar Model Indicator
  ,                                       ! Beam Solar Day Schedule Name
  ,                                       ! Diffuse Solar Day Schedule Name
  0.512,                                  ! ASHRAE Taub {dimensionless}
  1.951;                                  ! ASHRAE Taud {dimensionless}

OS:ComponentData,
  {1f48c111-d3a8-4bcb-a97a-9a5f5b5a1d96}, ! Handle
  Component Data 1,                       ! Name
  {dd700122-d0ce-48b3-8bad-d67ab29ec9c9}, ! UUID
  {ad481f4e-33db-4dc7-b0aa-fe1cb1cf906b}, ! Version UUID
  1366306790,                             ! Creation Timestamp
  1366306790,                             ! Version Timestamp
  {02a2f5ec-a2c8-4911-9ac3-00e056a17251}; ! Name of Object 1

