
OS:Version,
  {d0ec5428-c850-486b-bebe-a04ee3f2c985}, ! Handle
  0.9.3;                                  ! Version Identifier

OS:SizingPeriod:DesignDay,
  {a640a5a6-541e-431e-9dc4-3321d89374eb}, ! Handle
  Houston Bush Intercontinental Ann Clg .4% Condns DP=>MDB, ! Name
  28.3,                                   ! Maximum Dry-Bulb Temperature {C}
  10.1,                                   ! Daily Dry-Bulb Temperature Range {deltaC}
  25.5,                                   ! Humidity Indicating Conditions at Maximum Dry-Bulb {BasedOnField A3}
  100977,                                 ! Barometric Pressure {Pa}
  3.5,                                    ! Wind Speed {m/s}
  170,                                    ! Wind Direction {deg}
  0,                                      ! Sky Clearness
  0,                                      ! Rain Indicator
  0,                                      ! Snow Indicator
  21,                                     ! Day of Month
  7,                                      ! Month
  SummerDesignDay,                        ! Day Type
  0,                                      ! Daylight Saving Time Indicator
  Dewpoint,                               ! Humidity Indicating Type
  ,                                       ! Humidity Indicating Day Schedule Name
  DefaultMultipliers,                     ! Dry-Bulb Temperature Range Modifier Type
  ,                                       ! Dry-Bulb Temperature Range Modifier Schedule Name
  ASHRAETau,                              ! Solar Model Indicator
  ,                                       ! Beam Solar Day Schedule Name
  ,                                       ! Diffuse Solar Day Schedule Name
  0.499,                                  ! ASHRAE Taub {dimensionless}
  1.97;                                   ! ASHRAE Taud {dimensionless}

OS:ComponentData,
  {0ed2c265-c0a9-44a7-8d98-d0446f39b91a}, ! Handle
  Component Data 1,                       ! Name
  {ad370ea4-9fe4-4b48-a9c8-42093b26b0a4}, ! UUID
  {c097e659-8331-46ab-b574-37a7330425e8}, ! Version UUID
  1366310744,                             ! Creation Timestamp
  1366310744,                             ! Version Timestamp
  {a640a5a6-541e-431e-9dc4-3321d89374eb}; ! Name of Object 1

