
OS:Version,
  {2c1b0aba-00db-461e-93ab-ed9711933abb}, ! Handle
  0.9.3;                                  ! Version Identifier

OS:SizingPeriod:DesignDay,
  {ca342369-ffcc-42bf-bde0-7822cd212c57}, ! Handle
  GREAT_FALLS Ann Clg .4% Condns DB=>MWB, ! Name
  33.8,                                   ! Maximum Dry-Bulb Temperature {C}
  14.5,                                   ! Daily Dry-Bulb Temperature Range {deltaC}
  16.9,                                   ! Humidity Indicating Conditions at Maximum Dry-Bulb {BasedOnField A3}
  88617,                                  ! Barometric Pressure {Pa}
  3.9,                                    ! Wind Speed {m/s}
  260,                                    ! Wind Direction {deg}
  0,                                      ! Sky Clearness
  0,                                      ! Rain Indicator
  0,                                      ! Snow Indicator
  21,                                     ! Day of Month
  7,                                      ! Month
  SummerDesignDay,                        ! Day Type
  0,                                      ! Daylight Saving Time Indicator
  Wetbulb,                                ! Humidity Indicating Type
  ,                                       ! Humidity Indicating Day Schedule Name
  DefaultMultipliers,                     ! Dry-Bulb Temperature Range Modifier Type
  ,                                       ! Dry-Bulb Temperature Range Modifier Schedule Name
  ASHRAETau,                              ! Solar Model Indicator
  ,                                       ! Beam Solar Day Schedule Name
  ,                                       ! Diffuse Solar Day Schedule Name
  0.389,                                  ! ASHRAE Taub {dimensionless}
  2.154;                                  ! ASHRAE Taud {dimensionless}

OS:ComponentData,
  {c5686df5-1ca7-405a-89c6-610cd05ee840}, ! Handle
  Component Data 1,                       ! Name
  {fb2a7978-6874-4ded-8bdc-a15707152791}, ! UUID
  {cb41019e-b474-479b-b5c4-18465d4b515f}, ! Version UUID
  1366308771,                             ! Creation Timestamp
  1366308771,                             ! Version Timestamp
  {ca342369-ffcc-42bf-bde0-7822cd212c57}; ! Name of Object 1

