
OS:Version,
  {588c960a-0542-4ad2-82af-a713bc2ead7f}, ! Handle
  0.9.3;                                  ! Version Identifier

OS:SizingPeriod:DesignDay,
  {54d7ba5a-3548-4c68-9964-b7c938b76c47}, ! Handle
  Greer GreenvL Spartanbrg Ap Ann Clg .4% Condns Enth=>MDB, ! Name
  31.2,                                   ! Maximum Dry-Bulb Temperature {C}
  10.6,                                   ! Daily Dry-Bulb Temperature Range {deltaC}
  77200,                                  ! Humidity Indicating Conditions at Maximum Dry-Bulb {BasedOnField A3}
  97866,                                  ! Barometric Pressure {Pa}
  3.6,                                    ! Wind Speed {m/s}
  230,                                    ! Wind Direction {deg}
  0,                                      ! Sky Clearness
  0,                                      ! Rain Indicator
  0,                                      ! Snow Indicator
  21,                                     ! Day of Month
  7,                                      ! Month
  SummerDesignDay,                        ! Day Type
  0,                                      ! Daylight Saving Time Indicator
  Enthalpy,                               ! Humidity Indicating Type
  ,                                       ! Humidity Indicating Day Schedule Name
  DefaultMultipliers,                     ! Dry-Bulb Temperature Range Modifier Type
  ,                                       ! Dry-Bulb Temperature Range Modifier Schedule Name
  ASHRAETau,                              ! Solar Model Indicator
  ,                                       ! Beam Solar Day Schedule Name
  ,                                       ! Diffuse Solar Day Schedule Name
  0.545,                                  ! ASHRAE Taub {dimensionless}
  1.796;                                  ! ASHRAE Taud {dimensionless}

OS:ComponentData,
  {8357492b-4721-473e-aa59-2c54acb7bdf9}, ! Handle
  Component Data 1,                       ! Name
  {ebfc4c96-bdcd-468b-a2eb-82a733a81c9a}, ! UUID
  {0c497193-a19a-428d-b19d-b18408d4659e}, ! Version UUID
  1366310369,                             ! Creation Timestamp
  1366310369,                             ! Version Timestamp
  {54d7ba5a-3548-4c68-9964-b7c938b76c47}; ! Name of Object 1

