
OS:Version,
  {6a256493-62f2-4116-a37c-a2396a1ae5b5}, ! Handle
  0.9.3;                                  ! Version Identifier

OS:SizingPeriod:DesignDay,
  {cabf7a76-df32-43e2-bfea-4b80d208410b}, ! Handle
  Lynchburg Regional Arpt Ann Clg 1% Condns Enth=>MDB, ! Name
  29.8,                                   ! Maximum Dry-Bulb Temperature {C}
  10.7,                                   ! Daily Dry-Bulb Temperature Range {deltaC}
  73600,                                  ! Humidity Indicating Conditions at Maximum Dry-Bulb {BasedOnField A3}
  97936,                                  ! Barometric Pressure {Pa}
  3.3,                                    ! Wind Speed {m/s}
  240,                                    ! Wind Direction {deg}
  0,                                      ! Sky Clearness
  0,                                      ! Rain Indicator
  0,                                      ! Snow Indicator
  21,                                     ! Day of Month
  7,                                      ! Month
  SummerDesignDay,                        ! Day Type
  0,                                      ! Daylight Saving Time Indicator
  Enthalpy,                               ! Humidity Indicating Type
  ,                                       ! Humidity Indicating Day Schedule Name
  DefaultMultipliers,                     ! Dry-Bulb Temperature Range Modifier Type
  ,                                       ! Dry-Bulb Temperature Range Modifier Schedule Name
  ASHRAETau,                              ! Solar Model Indicator
  ,                                       ! Beam Solar Day Schedule Name
  ,                                       ! Diffuse Solar Day Schedule Name
  0.531,                                  ! ASHRAE Taub {dimensionless}
  1.818;                                  ! ASHRAE Taud {dimensionless}

OS:ComponentData,
  {af2f212a-ba04-45fe-8b9c-2021a1abb7f9}, ! Handle
  Component Data 1,                       ! Name
  {30cd8fb6-ef26-4d8f-839d-8f62ac25c598}, ! UUID
  {8e1421c3-7fb6-4d3c-9386-475030c5d397}, ! Version UUID
  1366311091,                             ! Creation Timestamp
  1366311091,                             ! Version Timestamp
  {cabf7a76-df32-43e2-bfea-4b80d208410b}; ! Name of Object 1

