
OS:Version,
  {df1bdc36-9e93-46df-aa8c-79b9565211f1}, ! Handle
  0.9.3;                                  ! Version Identifier

OS:SizingPeriod:DesignDay,
  {b1ac4876-8a03-4e34-bdd1-66f2d96854b0}, ! Handle
  Imperial Ann Clg 2% Condns WB=>MDB,     ! Name
  35.7,                                   ! Maximum Dry-Bulb Temperature {C}
  15.8,                                   ! Daily Dry-Bulb Temperature Range {deltaC}
  25.8,                                   ! Humidity Indicating Conditions at Maximum Dry-Bulb {BasedOnField A3}
  101529,                                 ! Barometric Pressure {Pa}
  3.5,                                    ! Wind Speed {m/s}
  110,                                    ! Wind Direction {deg}
  0,                                      ! Sky Clearness
  0,                                      ! Rain Indicator
  0,                                      ! Snow Indicator
  21,                                     ! Day of Month
  7,                                      ! Month
  SummerDesignDay,                        ! Day Type
  0,                                      ! Daylight Saving Time Indicator
  Wetbulb,                                ! Humidity Indicating Type
  ,                                       ! Humidity Indicating Day Schedule Name
  DefaultMultipliers,                     ! Dry-Bulb Temperature Range Modifier Type
  ,                                       ! Dry-Bulb Temperature Range Modifier Schedule Name
  ASHRAETau,                              ! Solar Model Indicator
  ,                                       ! Beam Solar Day Schedule Name
  ,                                       ! Diffuse Solar Day Schedule Name
  0.528,                                  ! ASHRAE Taub {dimensionless}
  1.788;                                  ! ASHRAE Taud {dimensionless}

OS:ComponentData,
  {60e49a93-1739-4b54-96b4-d8b6c0ddb780}, ! Handle
  Component Data 1,                       ! Name
  {2a762975-502c-4d2f-b3ae-4b6b7a77a0e5}, ! UUID
  {0e2b7d5b-7d75-4353-a4d2-56bed6ca6ff9}, ! Version UUID
  1366306455,                             ! Creation Timestamp
  1366306455,                             ! Version Timestamp
  {b1ac4876-8a03-4e34-bdd1-66f2d96854b0}; ! Name of Object 1

