
OS:Version,
  {e3c26fec-8398-4f15-b36c-b8957ab1bbef}, ! Handle
  0.9.3;                                  ! Version Identifier

OS:SizingPeriod:DesignDay,
  {2e7549a6-51d0-4370-ba52-97049143d657}, ! Handle
  Luke Afb Ann Htg Wind 99% Condns WS=>MCDB, ! Name
  14.4,                                   ! Maximum Dry-Bulb Temperature {C}
  0,                                      ! Daily Dry-Bulb Temperature Range {deltaC}
  14.4,                                   ! Humidity Indicating Conditions at Maximum Dry-Bulb {BasedOnField A3}
  97411,                                  ! Barometric Pressure {Pa}
  7.8,                                    ! Wind Speed {m/s}
  340,                                    ! Wind Direction {deg}
  0,                                      ! Sky Clearness
  0,                                      ! Rain Indicator
  0,                                      ! Snow Indicator
  21,                                     ! Day of Month
  12,                                     ! Month
  WinterDesignDay,                        ! Day Type
  0,                                      ! Daylight Saving Time Indicator
  Wetbulb,                                ! Humidity Indicating Type
  ,                                       ! Humidity Indicating Day Schedule Name
  DefaultMultipliers,                     ! Dry-Bulb Temperature Range Modifier Type
  ,                                       ! Dry-Bulb Temperature Range Modifier Schedule Name
  ASHRAEClearSky;                         ! Solar Model Indicator

OS:ComponentData,
  {ca1d80b8-1271-45ca-808f-5993edc536a1}, ! Handle
  Component Data 1,                       ! Name
  {d2cbb64f-71c6-4516-8842-f3dd178211fa}, ! UUID
  {eb8d1525-a31e-4be6-9944-fd3a94e79e8d}, ! Version UUID
  1366306283,                             ! Creation Timestamp
  1366306283,                             ! Version Timestamp
  {2e7549a6-51d0-4370-ba52-97049143d657}; ! Name of Object 1

