
OS:Version,
  {cc4d60eb-adf3-4b65-830d-b12a357c1728}, ! Handle
  0.9.3;                                  ! Version Identifier

OS:SizingPeriod:DesignDay,
  {bbeacb10-4222-4adf-a86b-c4be626a1303}, ! Handle
  Boise Air Terminal  Uo Ann Clg 2% Condns WB=>MDB, ! Name
  31.1,                                   ! Maximum Dry-Bulb Temperature {C}
  16.7,                                   ! Daily Dry-Bulb Temperature Range {deltaC}
  17.5,                                   ! Humidity Indicating Conditions at Maximum Dry-Bulb {BasedOnField A3}
  93182,                                  ! Barometric Pressure {Pa}
  4.2,                                    ! Wind Speed {m/s}
  330,                                    ! Wind Direction {deg}
  0,                                      ! Sky Clearness
  0,                                      ! Rain Indicator
  0,                                      ! Snow Indicator
  21,                                     ! Day of Month
  7,                                      ! Month
  SummerDesignDay,                        ! Day Type
  0,                                      ! Daylight Saving Time Indicator
  Wetbulb,                                ! Humidity Indicating Type
  ,                                       ! Humidity Indicating Day Schedule Name
  DefaultMultipliers,                     ! Dry-Bulb Temperature Range Modifier Type
  ,                                       ! Dry-Bulb Temperature Range Modifier Schedule Name
  ASHRAETau,                              ! Solar Model Indicator
  ,                                       ! Beam Solar Day Schedule Name
  ,                                       ! Diffuse Solar Day Schedule Name
  0.398,                                  ! ASHRAE Taub {dimensionless}
  2.125;                                  ! ASHRAE Taud {dimensionless}

OS:ComponentData,
  {8c232fe5-45a4-4575-9c3b-99480df3de05}, ! Handle
  Component Data 1,                       ! Name
  {b400eca6-8bc3-4a30-bd94-a23e69caad97}, ! UUID
  {1dfd2d7e-ff97-4d2b-bfff-3da103f1d26f}, ! Version UUID
  1366307271,                             ! Creation Timestamp
  1366307271,                             ! Version Timestamp
  {bbeacb10-4222-4adf-a86b-c4be626a1303}; ! Name of Object 1

