
OS:Version,
  {19182990-cf9e-4d17-8dc3-a93e9b967a85}, ! Handle
  0.9.3;                                  ! Version Identifier

OS:SizingPeriod:DesignDay,
  {dcd45833-5ad5-4c74-be2d-16160d986e5d}, ! Handle
  Kearney Muni  Awos Ann Hum_n 99.6% Condns DP=>MCDB, ! Name
  -17.8,                                  ! Maximum Dry-Bulb Temperature {C}
  0,                                      ! Daily Dry-Bulb Temperature Range {deltaC}
  -24.9,                                  ! Humidity Indicating Conditions at Maximum Dry-Bulb {BasedOnField A3}
  93767,                                  ! Barometric Pressure {Pa}
  4.4,                                    ! Wind Speed {m/s}
  320,                                    ! Wind Direction {deg}
  0,                                      ! Sky Clearness
  0,                                      ! Rain Indicator
  0,                                      ! Snow Indicator
  21,                                     ! Day of Month
  1,                                      ! Month
  WinterDesignDay,                        ! Day Type
  0,                                      ! Daylight Saving Time Indicator
  Dewpoint,                               ! Humidity Indicating Type
  ,                                       ! Humidity Indicating Day Schedule Name
  DefaultMultipliers,                     ! Dry-Bulb Temperature Range Modifier Type
  ,                                       ! Dry-Bulb Temperature Range Modifier Schedule Name
  ASHRAEClearSky;                         ! Solar Model Indicator

OS:ComponentData,
  {bb50d5b0-f7b9-4465-bf48-18566307a62f}, ! Handle
  Component Data 1,                       ! Name
  {cb05034a-a6e2-425b-8d4e-43c806af6c52}, ! UUID
  {ca2b1472-b8ca-4810-99bb-596219621d16}, ! Version UUID
  1366309134,                             ! Creation Timestamp
  1366309134,                             ! Version Timestamp
  {dcd45833-5ad5-4c74-be2d-16160d986e5d}; ! Name of Object 1

