
OS:Version,
  {c1251380-6b0e-4dcb-9aa0-078dc194d07f}, ! Handle
  0.9.3;                                  ! Version Identifier

OS:SizingPeriod:DesignDay,
  {2618417f-2be5-4449-afd2-d2f60ea4650a}, ! Handle
  Livermore Municipal Ann Htg 99.6% Condns DB, ! Name
  -1,                                     ! Maximum Dry-Bulb Temperature {C}
  0,                                      ! Daily Dry-Bulb Temperature Range {deltaC}
  -1,                                     ! Humidity Indicating Conditions at Maximum Dry-Bulb {BasedOnField A3}
  99880,                                  ! Barometric Pressure {Pa}
  0.9,                                    ! Wind Speed {m/s}
  80,                                     ! Wind Direction {deg}
  0,                                      ! Sky Clearness
  0,                                      ! Rain Indicator
  0,                                      ! Snow Indicator
  21,                                     ! Day of Month
  1,                                      ! Month
  WinterDesignDay,                        ! Day Type
  0,                                      ! Daylight Saving Time Indicator
  Wetbulb,                                ! Humidity Indicating Type
  ,                                       ! Humidity Indicating Day Schedule Name
  DefaultMultipliers,                     ! Dry-Bulb Temperature Range Modifier Type
  ,                                       ! Dry-Bulb Temperature Range Modifier Schedule Name
  ASHRAEClearSky;                         ! Solar Model Indicator

OS:ComponentData,
  {80ba0aa8-69bf-421f-8975-5c16e7e12a31}, ! Handle
  Component Data 1,                       ! Name
  {1e568a7e-9eab-4f03-bf51-d8f14e99f1f6}, ! UUID
  {6c470784-73b5-49c2-b406-d93145211d01}, ! Version UUID
  1366306463,                             ! Creation Timestamp
  1366306463,                             ! Version Timestamp
  {2618417f-2be5-4449-afd2-d2f60ea4650a}; ! Name of Object 1

