
OS:Version,
  {acbfd45c-caae-4340-8c7f-26c94d96031a}, ! Handle
  0.9.3;                                  ! Version Identifier

OS:SizingPeriod:DesignDay,
  {f1da825a-29ce-497f-b927-718021cfd522}, ! Handle
  COLUMBIA Ann Clg 2% Condns WB=>MDB,     ! Name
  30.1,                                   ! Maximum Dry-Bulb Temperature {C}
  11,                                     ! Daily Dry-Bulb Temperature Range {deltaC}
  24.7,                                   ! Humidity Indicating Conditions at Maximum Dry-Bulb {BasedOnField A3}
  98123,                                  ! Barometric Pressure {Pa}
  4.4,                                    ! Wind Speed {m/s}
  220,                                    ! Wind Direction {deg}
  0,                                      ! Sky Clearness
  0,                                      ! Rain Indicator
  0,                                      ! Snow Indicator
  21,                                     ! Day of Month
  7,                                      ! Month
  SummerDesignDay,                        ! Day Type
  0,                                      ! Daylight Saving Time Indicator
  Wetbulb,                                ! Humidity Indicating Type
  ,                                       ! Humidity Indicating Day Schedule Name
  DefaultMultipliers,                     ! Dry-Bulb Temperature Range Modifier Type
  ,                                       ! Dry-Bulb Temperature Range Modifier Schedule Name
  ASHRAETau,                              ! Solar Model Indicator
  ,                                       ! Beam Solar Day Schedule Name
  ,                                       ! Diffuse Solar Day Schedule Name
  0.448,                                  ! ASHRAE Taub {dimensionless}
  2.098;                                  ! ASHRAE Taud {dimensionless}

OS:ComponentData,
  {1ff69e3b-64ee-451b-b80f-22a4e19b3417}, ! Handle
  Component Data 1,                       ! Name
  {556ba35e-cd08-48da-9368-219920b0586c}, ! UUID
  {632ba981-e193-4dd9-921d-1bff61a0e018}, ! Version UUID
  1366308481,                             ! Creation Timestamp
  1366308481,                             ! Version Timestamp
  {f1da825a-29ce-497f-b927-718021cfd522}; ! Name of Object 1

