
OS:Version,
  {8171f2b1-5fd3-4c4c-9a55-403bc2278943}, ! Handle
  0.9.3;                                  ! Version Identifier

OS:SizingPeriod:DesignDay,
  {da250397-d5b7-4d0a-afd9-f562ff35d441}, ! Handle
  Fayetteville Rgnl G Ann Clg 2% Condns WB=>MDB, ! Name
  30.5,                                   ! Maximum Dry-Bulb Temperature {C}
  10.4,                                   ! Daily Dry-Bulb Temperature Range {deltaC}
  25.2,                                   ! Humidity Indicating Conditions at Maximum Dry-Bulb {BasedOnField A3}
  100618,                                 ! Barometric Pressure {Pa}
  3.7,                                    ! Wind Speed {m/s}
  240,                                    ! Wind Direction {deg}
  0,                                      ! Sky Clearness
  0,                                      ! Rain Indicator
  0,                                      ! Snow Indicator
  21,                                     ! Day of Month
  7,                                      ! Month
  SummerDesignDay,                        ! Day Type
  0,                                      ! Daylight Saving Time Indicator
  Wetbulb,                                ! Humidity Indicating Type
  ,                                       ! Humidity Indicating Day Schedule Name
  DefaultMultipliers,                     ! Dry-Bulb Temperature Range Modifier Type
  ,                                       ! Dry-Bulb Temperature Range Modifier Schedule Name
  ASHRAETau,                              ! Solar Model Indicator
  ,                                       ! Beam Solar Day Schedule Name
  ,                                       ! Diffuse Solar Day Schedule Name
  0.584,                                  ! ASHRAE Taub {dimensionless}
  1.713;                                  ! ASHRAE Taud {dimensionless}

OS:ComponentData,
  {c7c68d7d-778d-441f-af29-2ca710e29679}, ! Handle
  Component Data 1,                       ! Name
  {3b0febef-2ae0-4180-800a-97875d514814}, ! UUID
  {555f9cca-a7c8-4184-b3bf-5165319b7660}, ! Version UUID
  1366308915,                             ! Creation Timestamp
  1366308915,                             ! Version Timestamp
  {da250397-d5b7-4d0a-afd9-f562ff35d441}; ! Name of Object 1

