
OS:Version,
  {c14b31c7-65af-4b7e-9aee-3374fbb182eb}, ! Handle
  0.9.3;                                  ! Version Identifier

OS:SizingPeriod:DesignDay,
  {0699f217-38d6-460a-be9d-f830d96cc66d}, ! Handle
  Escanaba  Awos Ann Htg Wind 99% Condns WS=>MCDB, ! Name
  -6.7,                                   ! Maximum Dry-Bulb Temperature {C}
  0,                                      ! Daily Dry-Bulb Temperature Range {deltaC}
  -6.7,                                   ! Humidity Indicating Conditions at Maximum Dry-Bulb {BasedOnField A3}
  99099,                                  ! Barometric Pressure {Pa}
  10.1,                                   ! Wind Speed {m/s}
  270,                                    ! Wind Direction {deg}
  0,                                      ! Sky Clearness
  0,                                      ! Rain Indicator
  0,                                      ! Snow Indicator
  21,                                     ! Day of Month
  1,                                      ! Month
  WinterDesignDay,                        ! Day Type
  0,                                      ! Daylight Saving Time Indicator
  Wetbulb,                                ! Humidity Indicating Type
  ,                                       ! Humidity Indicating Day Schedule Name
  DefaultMultipliers,                     ! Dry-Bulb Temperature Range Modifier Type
  ,                                       ! Dry-Bulb Temperature Range Modifier Schedule Name
  ASHRAEClearSky;                         ! Solar Model Indicator

OS:ComponentData,
  {27d9cf33-cc04-422f-800a-c7eed277124b}, ! Handle
  Component Data 1,                       ! Name
  {620b4989-8cf9-41e0-8cd2-f9872a7535a2}, ! UUID
  {2025dd30-d3af-4b41-9da5-02fb2a69e387}, ! Version UUID
  1366307991,                             ! Creation Timestamp
  1366307991,                             ! Version Timestamp
  {0699f217-38d6-460a-be9d-f830d96cc66d}; ! Name of Object 1

