
OS:Version,
  {71ef9f59-bbf9-49c8-a802-bb1c2f64a0b3}, ! Handle
  0.9.3;                                  ! Version Identifier

OS:SizingPeriod:DesignDay,
  {1e7cfeee-456f-4127-8882-2cf70a97c270}, ! Handle
  Bakersfield Meadows Field Ann Htg Wind 99.6% Condns WS=>MCDB, ! Name
  14.6,                                   ! Maximum Dry-Bulb Temperature {C}
  0,                                      ! Daily Dry-Bulb Temperature Range {deltaC}
  14.6,                                   ! Humidity Indicating Conditions at Maximum Dry-Bulb {BasedOnField A3}
  99548,                                  ! Barometric Pressure {Pa}
  11.1,                                   ! Wind Speed {m/s}
  90,                                     ! Wind Direction {deg}
  0,                                      ! Sky Clearness
  0,                                      ! Rain Indicator
  0,                                      ! Snow Indicator
  21,                                     ! Day of Month
  12,                                     ! Month
  WinterDesignDay,                        ! Day Type
  0,                                      ! Daylight Saving Time Indicator
  Wetbulb,                                ! Humidity Indicating Type
  ,                                       ! Humidity Indicating Day Schedule Name
  DefaultMultipliers,                     ! Dry-Bulb Temperature Range Modifier Type
  ,                                       ! Dry-Bulb Temperature Range Modifier Schedule Name
  ASHRAEClearSky;                         ! Solar Model Indicator

OS:ComponentData,
  {14cb5808-8b60-4c9d-bdc8-b8e5d4716de4}, ! Handle
  Component Data 1,                       ! Name
  {25ff0b1b-676d-4deb-a28f-025f732143fb}, ! UUID
  {376a897c-798b-437c-a203-5175d9aa4df9}, ! Version UUID
  1366306363,                             ! Creation Timestamp
  1366306363,                             ! Version Timestamp
  {1e7cfeee-456f-4127-8882-2cf70a97c270}; ! Name of Object 1

