
OS:Version,
  {cc0ea693-860c-4ed0-922e-6c442822612e}, ! Handle
  0.9.3;                                  ! Version Identifier

OS:SizingPeriod:DesignDay,
  {fb591caa-6143-4c10-815a-a107ae2e07bb}, ! Handle
  ALBUQUERQUE Ann Htg 99% Condns DB,      ! Name
  -6,                                     ! Maximum Dry-Bulb Temperature {C}
  0,                                      ! Daily Dry-Bulb Temperature Range {deltaC}
  -6,                                     ! Humidity Indicating Conditions at Maximum Dry-Bulb {BasedOnField A3}
  83328,                                  ! Barometric Pressure {Pa}
  3.2,                                    ! Wind Speed {m/s}
  0,                                      ! Wind Direction {deg}
  0,                                      ! Sky Clearness
  0,                                      ! Rain Indicator
  0,                                      ! Snow Indicator
  21,                                     ! Day of Month
  12,                                     ! Month
  WinterDesignDay,                        ! Day Type
  0,                                      ! Daylight Saving Time Indicator
  Wetbulb,                                ! Humidity Indicating Type
  ,                                       ! Humidity Indicating Day Schedule Name
  DefaultMultipliers,                     ! Dry-Bulb Temperature Range Modifier Type
  ,                                       ! Dry-Bulb Temperature Range Modifier Schedule Name
  ASHRAEClearSky;                         ! Solar Model Indicator

OS:ComponentData,
  {76c808a4-788d-4a19-a3ed-01975721fbea}, ! Handle
  Component Data 1,                       ! Name
  {83603b59-abfe-4cd0-bb8e-b83df7304fd5}, ! UUID
  {6180ac35-2548-4bbb-9a82-cb5443f096a0}, ! Version UUID
  1366309356,                             ! Creation Timestamp
  1366309356,                             ! Version Timestamp
  {fb591caa-6143-4c10-815a-a107ae2e07bb}; ! Name of Object 1

