
OS:Version,
  {997f15d8-b169-462a-9e54-63da39f0c8d4}, ! Handle
  0.9.3;                                  ! Version Identifier

OS:SizingPeriod:DesignDay,
  {676917bf-d446-42f7-87e8-80780afd61f4}, ! Handle
  Durango La Plata Co Ann Htg 99% Condns DB, ! Name
  -13.7,                                  ! Maximum Dry-Bulb Temperature {C}
  0,                                      ! Daily Dry-Bulb Temperature Range {deltaC}
  -13.7,                                  ! Humidity Indicating Conditions at Maximum Dry-Bulb {BasedOnField A3}
  79121,                                  ! Barometric Pressure {Pa}
  1.5,                                    ! Wind Speed {m/s}
  20,                                     ! Wind Direction {deg}
  0,                                      ! Sky Clearness
  0,                                      ! Rain Indicator
  0,                                      ! Snow Indicator
  21,                                     ! Day of Month
  12,                                     ! Month
  WinterDesignDay,                        ! Day Type
  0,                                      ! Daylight Saving Time Indicator
  Wetbulb,                                ! Humidity Indicating Type
  ,                                       ! Humidity Indicating Day Schedule Name
  DefaultMultipliers,                     ! Dry-Bulb Temperature Range Modifier Type
  ,                                       ! Dry-Bulb Temperature Range Modifier Schedule Name
  ASHRAEClearSky;                         ! Solar Model Indicator

OS:ComponentData,
  {a2a9a8dd-ee91-41fd-8abe-eb8dffa96cab}, ! Handle
  Component Data 1,                       ! Name
  {c1c37ef7-da45-4ee6-ae1f-2cca81f67774}, ! UUID
  {47fbdbfb-6da6-40ae-8da7-b815e63af393}, ! Version UUID
  1366306680,                             ! Creation Timestamp
  1366306680,                             ! Version Timestamp
  {676917bf-d446-42f7-87e8-80780afd61f4}; ! Name of Object 1

