
OS:Version,
  {1331d0f9-3f66-4148-909f-e9ac4e3d671e}, ! Handle
  0.9.3;                                  ! Version Identifier

OS:SizingPeriod:DesignDay,
  {665364ad-1536-4589-8b7c-418f04010b25}, ! Handle
  Aurora Municipal Ann Htg Wind 99% Condns WS=>MCDB, ! Name
  -2.6,                                   ! Maximum Dry-Bulb Temperature {C}
  0,                                      ! Daily Dry-Bulb Temperature Range {deltaC}
  -2.6,                                   ! Humidity Indicating Conditions at Maximum Dry-Bulb {BasedOnField A3}
  98769,                                  ! Barometric Pressure {Pa}
  11.4,                                   ! Wind Speed {m/s}
  290,                                    ! Wind Direction {deg}
  0,                                      ! Sky Clearness
  0,                                      ! Rain Indicator
  0,                                      ! Snow Indicator
  21,                                     ! Day of Month
  1,                                      ! Month
  WinterDesignDay,                        ! Day Type
  0,                                      ! Daylight Saving Time Indicator
  Wetbulb,                                ! Humidity Indicating Type
  ,                                       ! Humidity Indicating Day Schedule Name
  DefaultMultipliers,                     ! Dry-Bulb Temperature Range Modifier Type
  ,                                       ! Dry-Bulb Temperature Range Modifier Schedule Name
  ASHRAEClearSky;                         ! Solar Model Indicator

OS:ComponentData,
  {ff146acf-bbd2-4cda-bd43-f792845a03ed}, ! Handle
  Component Data 1,                       ! Name
  {37876f95-d72b-44e3-b6a8-f15391ddd8dc}, ! UUID
  {5eef8bc1-83e3-439e-804f-4ded8d84ccef}, ! Version UUID
  1366307318,                             ! Creation Timestamp
  1366307318,                             ! Version Timestamp
  {665364ad-1536-4589-8b7c-418f04010b25}; ! Name of Object 1

