
OS:Version,
  {f6b44be5-cb9c-47bd-a373-0c7169fb5410}, ! Handle
  0.9.3;                                  ! Version Identifier

OS:SizingPeriod:DesignDay,
  {a18d6e25-8124-4a16-b863-22c1e1dd64b5}, ! Handle
  Hobart Municipal Ap Ann Clg .4% Condns Enth=>MDB, ! Name
  32.8,                                   ! Maximum Dry-Bulb Temperature {C}
  13,                                     ! Daily Dry-Bulb Temperature Range {deltaC}
  78400,                                  ! Humidity Indicating Conditions at Maximum Dry-Bulb {BasedOnField A3}
  95713,                                  ! Barometric Pressure {Pa}
  6.3,                                    ! Wind Speed {m/s}
  170,                                    ! Wind Direction {deg}
  0,                                      ! Sky Clearness
  0,                                      ! Rain Indicator
  0,                                      ! Snow Indicator
  21,                                     ! Day of Month
  7,                                      ! Month
  SummerDesignDay,                        ! Day Type
  0,                                      ! Daylight Saving Time Indicator
  Enthalpy,                               ! Humidity Indicating Type
  ,                                       ! Humidity Indicating Day Schedule Name
  DefaultMultipliers,                     ! Dry-Bulb Temperature Range Modifier Type
  ,                                       ! Dry-Bulb Temperature Range Modifier Schedule Name
  ASHRAETau,                              ! Solar Model Indicator
  ,                                       ! Beam Solar Day Schedule Name
  ,                                       ! Diffuse Solar Day Schedule Name
  0.417,                                  ! ASHRAE Taub {dimensionless}
  2.22;                                   ! ASHRAE Taud {dimensionless}

OS:ComponentData,
  {62daefed-583a-4131-91d8-0d9c545e1b93}, ! Handle
  Component Data 1,                       ! Name
  {2a37d81c-0c2f-45c5-9beb-10f69036ac5a}, ! UUID
  {a015cbaf-a723-44b7-a31d-44effee167db}, ! Version UUID
  1366309899,                             ! Creation Timestamp
  1366309899,                             ! Version Timestamp
  {a18d6e25-8124-4a16-b863-22c1e1dd64b5}; ! Name of Object 1

