
OS:Version,
  {67b19fc8-a90c-4fb3-beed-35dfd1f619e2}, ! Handle
  0.9.3;                                  ! Version Identifier

OS:SizingPeriod:DesignDay,
  {808614f1-22c5-4571-8995-edd2462cd08d}, ! Handle
  Homer Ann Hum_n 99% Condns DP=>MCDB,    ! Name
  -13.8,                                  ! Maximum Dry-Bulb Temperature {C}
  0,                                      ! Daily Dry-Bulb Temperature Range {deltaC}
  -21.6,                                  ! Humidity Indicating Conditions at Maximum Dry-Bulb {BasedOnField A3}
  101025,                                 ! Barometric Pressure {Pa}
  3,                                      ! Wind Speed {m/s}
  30,                                     ! Wind Direction {deg}
  0,                                      ! Sky Clearness
  0,                                      ! Rain Indicator
  0,                                      ! Snow Indicator
  21,                                     ! Day of Month
  1,                                      ! Month
  WinterDesignDay,                        ! Day Type
  0,                                      ! Daylight Saving Time Indicator
  Dewpoint,                               ! Humidity Indicating Type
  ,                                       ! Humidity Indicating Day Schedule Name
  DefaultMultipliers,                     ! Dry-Bulb Temperature Range Modifier Type
  ,                                       ! Dry-Bulb Temperature Range Modifier Schedule Name
  ASHRAEClearSky;                         ! Solar Model Indicator

OS:ComponentData,
  {58a5eef7-1547-45c3-8d2e-2269709ddcbb}, ! Handle
  Component Data 1,                       ! Name
  {51becd20-f361-46b1-b510-c50033877e6d}, ! UUID
  {dcd65a04-44b1-448d-a7cd-238dce185648}, ! Version UUID
  1366305302,                             ! Creation Timestamp
  1366305302,                             ! Version Timestamp
  {808614f1-22c5-4571-8995-edd2462cd08d}; ! Name of Object 1

