
OS:Version,
  {d471f4b8-3f23-47ba-ab4c-005a397e5675}, ! Handle
  0.9.3;                                  ! Version Identifier

OS:SizingPeriod:DesignDay,
  {db9efe06-46ee-44ce-a729-5717f26c3b61}, ! Handle
  Lafayette Purdue Univ Ap Ann Htg 99.6% Condns DB, ! Name
  -19.1,                                  ! Maximum Dry-Bulb Temperature {C}
  0,                                      ! Daily Dry-Bulb Temperature Range {deltaC}
  -19.1,                                  ! Humidity Indicating Conditions at Maximum Dry-Bulb {BasedOnField A3}
  99146,                                  ! Barometric Pressure {Pa}
  4.3,                                    ! Wind Speed {m/s}
  280,                                    ! Wind Direction {deg}
  0,                                      ! Sky Clearness
  0,                                      ! Rain Indicator
  0,                                      ! Snow Indicator
  21,                                     ! Day of Month
  1,                                      ! Month
  WinterDesignDay,                        ! Day Type
  0,                                      ! Daylight Saving Time Indicator
  Wetbulb,                                ! Humidity Indicating Type
  ,                                       ! Humidity Indicating Day Schedule Name
  DefaultMultipliers,                     ! Dry-Bulb Temperature Range Modifier Type
  ,                                       ! Dry-Bulb Temperature Range Modifier Schedule Name
  ASHRAEClearSky;                         ! Solar Model Indicator

OS:ComponentData,
  {12dd5157-6036-4e6e-ba07-636bf3442a2b}, ! Handle
  Component Data 1,                       ! Name
  {07944a4a-f2ad-47b1-9950-315154c79f96}, ! UUID
  {7bbac11c-b080-44d4-9f3c-f314d07994a6}, ! Version UUID
  1366307470,                             ! Creation Timestamp
  1366307470,                             ! Version Timestamp
  {db9efe06-46ee-44ce-a729-5717f26c3b61}; ! Name of Object 1

