
OS:Version,
  {7e750ccf-f6e7-443f-97a8-3f2ff55b05e5}, ! Handle
  0.9.3;                                  ! Version Identifier

OS:SizingPeriod:DesignDay,
  {89df4c68-cd13-4ce1-bc12-e05c8a5f5664}, ! Handle
  Anchorage Intl Ap Ann Htg 99.6% Condns DB, ! Name
  -22.7,                                  ! Maximum Dry-Bulb Temperature {C}
  0,                                      ! Daily Dry-Bulb Temperature Range {deltaC}
  -22.7,                                  ! Humidity Indicating Conditions at Maximum Dry-Bulb {BasedOnField A3}
  100905,                                 ! Barometric Pressure {Pa}
  1.8,                                    ! Wind Speed {m/s}
  350,                                    ! Wind Direction {deg}
  0,                                      ! Sky Clearness
  0,                                      ! Rain Indicator
  0,                                      ! Snow Indicator
  21,                                     ! Day of Month
  1,                                      ! Month
  WinterDesignDay,                        ! Day Type
  0,                                      ! Daylight Saving Time Indicator
  Wetbulb,                                ! Humidity Indicating Type
  ,                                       ! Humidity Indicating Day Schedule Name
  DefaultMultipliers,                     ! Dry-Bulb Temperature Range Modifier Type
  ,                                       ! Dry-Bulb Temperature Range Modifier Schedule Name
  ASHRAEClearSky;                         ! Solar Model Indicator

OS:ComponentData,
  {1dea8eff-8a57-4ee8-bba7-5056290d583a}, ! Handle
  Component Data 1,                       ! Name
  {af041e46-8e21-45ff-938d-30e7d00e9cbf}, ! UUID
  {8109c937-eb48-49f8-a2b1-eda1ee6d6d44}, ! Version UUID
  1366304708,                             ! Creation Timestamp
  1366304708,                             ! Version Timestamp
  {89df4c68-cd13-4ce1-bc12-e05c8a5f5664}; ! Name of Object 1

