
OS:Version,
  {0f2643f8-b63f-44be-b70c-dd155f9d0b59}, ! Handle
  0.9.3;                                  ! Version Identifier

OS:SizingPeriod:DesignDay,
  {b7585ae2-edd8-4bae-b7d4-2eb565e62621}, ! Handle
  Eagle Ann Clg 1% Condns DP=>MDB,        ! Name
  18.1,                                   ! Maximum Dry-Bulb Temperature {C}
  19,                                     ! Daily Dry-Bulb Temperature Range {deltaC}
  12.4,                                   ! Humidity Indicating Conditions at Maximum Dry-Bulb {BasedOnField A3}
  79564,                                  ! Barometric Pressure {Pa}
  4.9,                                    ! Wind Speed {m/s}
  240,                                    ! Wind Direction {deg}
  0,                                      ! Sky Clearness
  0,                                      ! Rain Indicator
  0,                                      ! Snow Indicator
  21,                                     ! Day of Month
  7,                                      ! Month
  SummerDesignDay,                        ! Day Type
  0,                                      ! Daylight Saving Time Indicator
  Dewpoint,                               ! Humidity Indicating Type
  ,                                       ! Humidity Indicating Day Schedule Name
  DefaultMultipliers,                     ! Dry-Bulb Temperature Range Modifier Type
  ,                                       ! Dry-Bulb Temperature Range Modifier Schedule Name
  ASHRAETau,                              ! Solar Model Indicator
  ,                                       ! Beam Solar Day Schedule Name
  ,                                       ! Diffuse Solar Day Schedule Name
  0.4,                                    ! ASHRAE Taub {dimensionless}
  2.165;                                  ! ASHRAE Taud {dimensionless}

OS:ComponentData,
  {b67730b6-36a8-472f-bf65-e5fef9725325}, ! Handle
  Component Data 1,                       ! Name
  {ac07346c-7fee-4809-83c9-4ed4489e7608}, ! UUID
  {d93dae17-c903-4d4e-a3d9-1c3f0cafb73d}, ! Version UUID
  1366306686,                             ! Creation Timestamp
  1366306686,                             ! Version Timestamp
  {b7585ae2-edd8-4bae-b7d4-2eb565e62621}; ! Name of Object 1

