
OS:Version,
  {f8f6b3fc-053c-4a4d-824b-d69a0322b863}, ! Handle
  0.9.3;                                  ! Version Identifier

OS:SizingPeriod:DesignDay,
  {3b8230a9-2c55-465a-b3ab-252d492d0bf6}, ! Handle
  CHICAGO Ann Clg 1% Condns WB=>MDB,      ! Name
  29.6,                                   ! Maximum Dry-Bulb Temperature {C}
  10.5,                                   ! Daily Dry-Bulb Temperature Range {deltaC}
  24.5,                                   ! Humidity Indicating Conditions at Maximum Dry-Bulb {BasedOnField A3}
  99063,                                  ! Barometric Pressure {Pa}
  5.2,                                    ! Wind Speed {m/s}
  230,                                    ! Wind Direction {deg}
  0,                                      ! Sky Clearness
  0,                                      ! Rain Indicator
  0,                                      ! Snow Indicator
  21,                                     ! Day of Month
  7,                                      ! Month
  SummerDesignDay,                        ! Day Type
  0,                                      ! Daylight Saving Time Indicator
  Wetbulb,                                ! Humidity Indicating Type
  ,                                       ! Humidity Indicating Day Schedule Name
  DefaultMultipliers,                     ! Dry-Bulb Temperature Range Modifier Type
  ,                                       ! Dry-Bulb Temperature Range Modifier Schedule Name
  ASHRAETau,                              ! Solar Model Indicator
  ,                                       ! Beam Solar Day Schedule Name
  ,                                       ! Diffuse Solar Day Schedule Name
  0.455,                                  ! ASHRAE Taub {dimensionless}
  2.05;                                   ! ASHRAE Taud {dimensionless}

OS:ComponentData,
  {bcf8e72e-9ea4-49e9-8f74-284ea40cbc14}, ! Handle
  Component Data 1,                       ! Name
  {e57f25ef-8a17-4e81-a788-e3369860b47d}, ! UUID
  {62a674a1-6d16-4943-b5e5-fbe4622c7a22}, ! Version UUID
  1366307347,                             ! Creation Timestamp
  1366307347,                             ! Version Timestamp
  {3b8230a9-2c55-465a-b3ab-252d492d0bf6}; ! Name of Object 1

