
OS:Version,
  {872f6904-d923-44dd-a3d5-0e4c43107c51}, ! Handle
  0.9.3;                                  ! Version Identifier

OS:SizingPeriod:DesignDay,
  {8fbe8d6d-7533-4bda-8a1f-e4a5e303cac8}, ! Handle
  Indianapolis Ann Hum_n 99.6% Condns DP=>MCDB, ! Name
  -17.5,                                  ! Maximum Dry-Bulb Temperature {C}
  0,                                      ! Daily Dry-Bulb Temperature Range {deltaC}
  -22.7,                                  ! Humidity Indicating Conditions at Maximum Dry-Bulb {BasedOnField A3}
  98404,                                  ! Barometric Pressure {Pa}
  4.5,                                    ! Wind Speed {m/s}
  270,                                    ! Wind Direction {deg}
  0,                                      ! Sky Clearness
  0,                                      ! Rain Indicator
  0,                                      ! Snow Indicator
  21,                                     ! Day of Month
  1,                                      ! Month
  WinterDesignDay,                        ! Day Type
  0,                                      ! Daylight Saving Time Indicator
  Dewpoint,                               ! Humidity Indicating Type
  ,                                       ! Humidity Indicating Day Schedule Name
  DefaultMultipliers,                     ! Dry-Bulb Temperature Range Modifier Type
  ,                                       ! Dry-Bulb Temperature Range Modifier Schedule Name
  ASHRAEClearSky;                         ! Solar Model Indicator

OS:ComponentData,
  {a181e3f6-8a67-4d61-9ca4-a1b44468ecb4}, ! Handle
  Component Data 1,                       ! Name
  {32c2b1b8-fddc-474d-a7ae-a6d5e9bcc274}, ! UUID
  {43475ae5-f338-49a8-a3ba-d5b1534032a0}, ! Version UUID
  1366307463,                             ! Creation Timestamp
  1366307463,                             ! Version Timestamp
  {8fbe8d6d-7533-4bda-8a1f-e4a5e303cac8}; ! Name of Object 1

