
OS:Version,
  {00d1b2d5-f3df-4f64-af28-feae29fa6007}, ! Handle
  0.9.3;                                  ! Version Identifier

OS:SizingPeriod:DesignDay,
  {a350e2b1-af75-4461-9968-dc722356a7ce}, ! Handle
  Estherville Muni Ann Clg 1% Condns DP=>MDB, ! Name
  27.2,                                   ! Maximum Dry-Bulb Temperature {C}
  11,                                     ! Daily Dry-Bulb Temperature Range {deltaC}
  22.9,                                   ! Humidity Indicating Conditions at Maximum Dry-Bulb {BasedOnField A3}
  96600,                                  ! Barometric Pressure {Pa}
  7,                                      ! Wind Speed {m/s}
  180,                                    ! Wind Direction {deg}
  0,                                      ! Sky Clearness
  0,                                      ! Rain Indicator
  0,                                      ! Snow Indicator
  21,                                     ! Day of Month
  7,                                      ! Month
  SummerDesignDay,                        ! Day Type
  0,                                      ! Daylight Saving Time Indicator
  Dewpoint,                               ! Humidity Indicating Type
  ,                                       ! Humidity Indicating Day Schedule Name
  DefaultMultipliers,                     ! Dry-Bulb Temperature Range Modifier Type
  ,                                       ! Dry-Bulb Temperature Range Modifier Schedule Name
  ASHRAETau,                              ! Solar Model Indicator
  ,                                       ! Beam Solar Day Schedule Name
  ,                                       ! Diffuse Solar Day Schedule Name
  0.401,                                  ! ASHRAE Taub {dimensionless}
  2.243;                                  ! ASHRAE Taud {dimensionless}

OS:ComponentData,
  {7132f4a2-0963-4c26-a0fb-bf1ffc80cbb7}, ! Handle
  Component Data 1,                       ! Name
  {c3350fbc-c1ec-47b0-8320-a501d6da82d6}, ! UUID
  {febf0215-4a9f-4642-8fe6-293aa437d205}, ! Version UUID
  1366307190,                             ! Creation Timestamp
  1366307190,                             ! Version Timestamp
  {a350e2b1-af75-4461-9968-dc722356a7ce}; ! Name of Object 1

