
OS:Version,
  {20963cc2-cbd9-461a-aebb-639f518b3db1}, ! Handle
  0.9.3;                                  ! Version Identifier

OS:SizingPeriod:DesignDay,
  {c67809b5-a3f0-4b0f-9f3f-4d4ee04facc2}, ! Handle
  Deadhorse Ann Htg Wind 99% Condns WS=>MCDB, ! Name
  -19.2,                                  ! Maximum Dry-Bulb Temperature {C}
  0,                                      ! Daily Dry-Bulb Temperature Range {deltaC}
  -19.2,                                  ! Humidity Indicating Conditions at Maximum Dry-Bulb {BasedOnField A3}
  101049,                                 ! Barometric Pressure {Pa}
  15.5,                                   ! Wind Speed {m/s}
  240,                                    ! Wind Direction {deg}
  0,                                      ! Sky Clearness
  0,                                      ! Rain Indicator
  0,                                      ! Snow Indicator
  21,                                     ! Day of Month
  2,                                      ! Month
  WinterDesignDay,                        ! Day Type
  0,                                      ! Daylight Saving Time Indicator
  Wetbulb,                                ! Humidity Indicating Type
  ,                                       ! Humidity Indicating Day Schedule Name
  DefaultMultipliers,                     ! Dry-Bulb Temperature Range Modifier Type
  ,                                       ! Dry-Bulb Temperature Range Modifier Schedule Name
  ASHRAEClearSky;                         ! Solar Model Indicator

OS:ComponentData,
  {fc437ea3-8d0f-4a19-8e64-af6152d3d773}, ! Handle
  Component Data 1,                       ! Name
  {8cf76ace-b4a9-41cd-baad-85fad856e161}, ! UUID
  {ac73bdc5-0985-4c2e-b0e7-39d2c3c9eec4}, ! Version UUID
  1366305205,                             ! Creation Timestamp
  1366305205,                             ! Version Timestamp
  {c67809b5-a3f0-4b0f-9f3f-4d4ee04facc2}; ! Name of Object 1

