
OS:Version,
  {05acd49b-d4a1-4300-b7e4-8f30f8b56d1b}, ! Handle
  0.9.3;                                  ! Version Identifier

OS:SizingPeriod:DesignDay,
  {e5112cfb-a763-49a3-b045-2341f378938b}, ! Handle
  Fairchild Afb Ann Clg 1% Condns DP=>MDB, ! Name
  19.7,                                   ! Maximum Dry-Bulb Temperature {C}
  14.5,                                   ! Daily Dry-Bulb Temperature Range {deltaC}
  13.4,                                   ! Humidity Indicating Conditions at Maximum Dry-Bulb {BasedOnField A3}
  92712,                                  ! Barometric Pressure {Pa}
  3.4,                                    ! Wind Speed {m/s}
  240,                                    ! Wind Direction {deg}
  0,                                      ! Sky Clearness
  0,                                      ! Rain Indicator
  0,                                      ! Snow Indicator
  21,                                     ! Day of Month
  7,                                      ! Month
  SummerDesignDay,                        ! Day Type
  0,                                      ! Daylight Saving Time Indicator
  Dewpoint,                               ! Humidity Indicating Type
  ,                                       ! Humidity Indicating Day Schedule Name
  DefaultMultipliers,                     ! Dry-Bulb Temperature Range Modifier Type
  ,                                       ! Dry-Bulb Temperature Range Modifier Schedule Name
  ASHRAETau,                              ! Solar Model Indicator
  ,                                       ! Beam Solar Day Schedule Name
  ,                                       ! Diffuse Solar Day Schedule Name
  0.353,                                  ! ASHRAE Taub {dimensionless}
  2.387;                                  ! ASHRAE Taud {dimensionless}

OS:ComponentData,
  {b6e5821d-cecd-4572-b11d-96bcb1a543fd}, ! Handle
  Component Data 1,                       ! Name
  {46ed1462-c427-4452-811d-f2a29c68293a}, ! UUID
  {034a8571-b33a-4a90-9407-1fb827bff013}, ! Version UUID
  1366311280,                             ! Creation Timestamp
  1366311280,                             ! Version Timestamp
  {e5112cfb-a763-49a3-b045-2341f378938b}; ! Name of Object 1

