
OS:Version,
  {84fea3ad-0292-4260-bc83-784f16b23472}, ! Handle
  0.9.3;                                  ! Version Identifier

OS:SizingPeriod:DesignDay,
  {828d0eac-f52c-4886-8022-6a038559d50e}, ! Handle
  Asheville Ann Clg .4% Condns DP=>MDB,   ! Name
  25.3,                                   ! Maximum Dry-Bulb Temperature {C}
  10.7,                                   ! Daily Dry-Bulb Temperature Range {deltaC}
  22,                                     ! Humidity Indicating Conditions at Maximum Dry-Bulb {BasedOnField A3}
  93632,                                  ! Barometric Pressure {Pa}
  3.8,                                    ! Wind Speed {m/s}
  340,                                    ! Wind Direction {deg}
  0,                                      ! Sky Clearness
  0,                                      ! Rain Indicator
  0,                                      ! Snow Indicator
  21,                                     ! Day of Month
  7,                                      ! Month
  SummerDesignDay,                        ! Day Type
  0,                                      ! Daylight Saving Time Indicator
  Dewpoint,                               ! Humidity Indicating Type
  ,                                       ! Humidity Indicating Day Schedule Name
  DefaultMultipliers,                     ! Dry-Bulb Temperature Range Modifier Type
  ,                                       ! Dry-Bulb Temperature Range Modifier Schedule Name
  ASHRAETau,                              ! Solar Model Indicator
  ,                                       ! Beam Solar Day Schedule Name
  ,                                       ! Diffuse Solar Day Schedule Name
  0.517,                                  ! ASHRAE Taub {dimensionless}
  1.849;                                  ! ASHRAE Taud {dimensionless}

OS:ComponentData,
  {b0bd7224-b106-4ee8-9f9a-bd8c83f36bfa}, ! Handle
  Component Data 1,                       ! Name
  {bef15143-81d9-4a39-a716-5ee85daafe5f}, ! UUID
  {d683f87f-7747-430e-ae50-bc75ff193b71}, ! Version UUID
  1366308865,                             ! Creation Timestamp
  1366308865,                             ! Version Timestamp
  {828d0eac-f52c-4886-8022-6a038559d50e}; ! Name of Object 1

