
OS:Version,
  {251af170-2860-4a3d-934a-5a6f60aadfb8}, ! Handle
  0.9.3;                                  ! Version Identifier

OS:SizingPeriod:DesignDay,
  {78ad12d4-2856-47aa-887a-85cfd2010481}, ! Handle
  Fort Campbell Aaf Ann Clg 1% Condns DP=>MDB, ! Name
  28.4,                                   ! Maximum Dry-Bulb Temperature {C}
  10.5,                                   ! Daily Dry-Bulb Temperature Range {deltaC}
  24.3,                                   ! Humidity Indicating Conditions at Maximum Dry-Bulb {BasedOnField A3}
  99264,                                  ! Barometric Pressure {Pa}
  3,                                      ! Wind Speed {m/s}
  210,                                    ! Wind Direction {deg}
  0,                                      ! Sky Clearness
  0,                                      ! Rain Indicator
  0,                                      ! Snow Indicator
  21,                                     ! Day of Month
  7,                                      ! Month
  SummerDesignDay,                        ! Day Type
  0,                                      ! Daylight Saving Time Indicator
  Dewpoint,                               ! Humidity Indicating Type
  ,                                       ! Humidity Indicating Day Schedule Name
  DefaultMultipliers,                     ! Dry-Bulb Temperature Range Modifier Type
  ,                                       ! Dry-Bulb Temperature Range Modifier Schedule Name
  ASHRAETau,                              ! Solar Model Indicator
  ,                                       ! Beam Solar Day Schedule Name
  ,                                       ! Diffuse Solar Day Schedule Name
  0.511,                                  ! ASHRAE Taub {dimensionless}
  1.883;                                  ! ASHRAE Taud {dimensionless}

