
OS:Version,
  {4c264a42-2d7e-47b0-a4ca-3e4e25924ce3}, ! Handle
  0.9.3;                                  ! Version Identifier

OS:SizingPeriod:DesignDay,
  {f968ae4c-7592-49f9-8344-59d755820608}, ! Handle
  Ewa/Barbers Point NAS Ann Clg 1% Condns DP=>MDB, ! Name
  27.8,                                   ! Maximum Dry-Bulb Temperature {C}
  8.6,                                    ! Daily Dry-Bulb Temperature Range {deltaC}
  23.1,                                   ! Humidity Indicating Conditions at Maximum Dry-Bulb {BasedOnField A3}
  101145,                                 ! Barometric Pressure {Pa}
  5.1,                                    ! Wind Speed {m/s}
  60,                                     ! Wind Direction {deg}
  0,                                      ! Sky Clearness
  0,                                      ! Rain Indicator
  0,                                      ! Snow Indicator
  21,                                     ! Day of Month
  8,                                      ! Month
  SummerDesignDay,                        ! Day Type
  0,                                      ! Daylight Saving Time Indicator
  Dewpoint,                               ! Humidity Indicating Type
  ,                                       ! Humidity Indicating Day Schedule Name
  DefaultMultipliers,                     ! Dry-Bulb Temperature Range Modifier Type
  ,                                       ! Dry-Bulb Temperature Range Modifier Schedule Name
  ASHRAETau,                              ! Solar Model Indicator
  ,                                       ! Beam Solar Day Schedule Name
  ,                                       ! Diffuse Solar Day Schedule Name
  0.382,                                  ! ASHRAE Taub {dimensionless}
  2.522;                                  ! ASHRAE Taud {dimensionless}

OS:ComponentData,
  {1a02d53b-f240-4a09-a158-958c96046370}, ! Handle
  Component Data 1,                       ! Name
  {7c4fbfa0-dc70-4aa6-9a6f-278e2a6642d2}, ! UUID
  {1cd5cb66-b6ea-4c09-a3b1-63abc49d97fe}, ! Version UUID
  1366307070,                             ! Creation Timestamp
  1366307070,                             ! Version Timestamp
  {f968ae4c-7592-49f9-8344-59d755820608}; ! Name of Object 1

