
OS:Version,
  {61c4e267-7941-4cc5-851f-d7262192bba7}, ! Handle
  0.9.3;                                  ! Version Identifier

OS:SizingPeriod:DesignDay,
  {9f0f9982-e1c0-4906-be85-bbcb843eb98b}, ! Handle
  Bellevue Offutt Afb Ann Clg 2% Condns WB=>MDB, ! Name
  29.9,                                   ! Maximum Dry-Bulb Temperature {C}
  10.3,                                   ! Daily Dry-Bulb Temperature Range {deltaC}
  24.7,                                   ! Humidity Indicating Conditions at Maximum Dry-Bulb {BasedOnField A3}
  97551,                                  ! Barometric Pressure {Pa}
  4.4,                                    ! Wind Speed {m/s}
  160,                                    ! Wind Direction {deg}
  0,                                      ! Sky Clearness
  0,                                      ! Rain Indicator
  0,                                      ! Snow Indicator
  21,                                     ! Day of Month
  7,                                      ! Month
  SummerDesignDay,                        ! Day Type
  0,                                      ! Daylight Saving Time Indicator
  Wetbulb,                                ! Humidity Indicating Type
  ,                                       ! Humidity Indicating Day Schedule Name
  DefaultMultipliers,                     ! Dry-Bulb Temperature Range Modifier Type
  ,                                       ! Dry-Bulb Temperature Range Modifier Schedule Name
  ASHRAETau,                              ! Solar Model Indicator
  ,                                       ! Beam Solar Day Schedule Name
  ,                                       ! Diffuse Solar Day Schedule Name
  0.42,                                   ! ASHRAE Taub {dimensionless}
  2.201;                                  ! ASHRAE Taud {dimensionless}

OS:ComponentData,
  {e12ed8b1-e5bd-4743-b99d-22597528837a}, ! Handle
  Component Data 1,                       ! Name
  {8534cf68-449a-4fa6-8825-38ab5877b4e3}, ! UUID
  {72605cf9-7f2e-4084-b4da-de1b5f7fa4a8}, ! Version UUID
  1366309090,                             ! Creation Timestamp
  1366309090,                             ! Version Timestamp
  {9f0f9982-e1c0-4906-be85-bbcb843eb98b}; ! Name of Object 1

