
OS:Version,
  {33873824-1c70-4bf3-bc8e-32be667f0d39}, ! Handle
  0.9.3;                                  ! Version Identifier

OS:SizingPeriod:DesignDay,
  {7b7da30d-44df-4d3c-aabe-64271f5f3ce4}, ! Handle
  Concord Municipal Arpt Ann Clg .4% Condns Enth=>MDB, ! Name
  29.2,                                   ! Maximum Dry-Bulb Temperature {C}
  12.8,                                   ! Daily Dry-Bulb Temperature Range {deltaC}
  71300,                                  ! Humidity Indicating Conditions at Maximum Dry-Bulb {BasedOnField A3}
  100058,                                 ! Barometric Pressure {Pa}
  4.4,                                    ! Wind Speed {m/s}
  230,                                    ! Wind Direction {deg}
  0,                                      ! Sky Clearness
  0,                                      ! Rain Indicator
  0,                                      ! Snow Indicator
  21,                                     ! Day of Month
  7,                                      ! Month
  SummerDesignDay,                        ! Day Type
  0,                                      ! Daylight Saving Time Indicator
  Enthalpy,                               ! Humidity Indicating Type
  ,                                       ! Humidity Indicating Day Schedule Name
  DefaultMultipliers,                     ! Dry-Bulb Temperature Range Modifier Type
  ,                                       ! Dry-Bulb Temperature Range Modifier Schedule Name
  ASHRAETau,                              ! Solar Model Indicator
  ,                                       ! Beam Solar Day Schedule Name
  ,                                       ! Diffuse Solar Day Schedule Name
  0.459,                                  ! ASHRAE Taub {dimensionless}
  2.014;                                  ! ASHRAE Taud {dimensionless}

OS:ComponentData,
  {8a9bf43c-99cf-46b5-86ee-b1beffd28088}, ! Handle
  Component Data 1,                       ! Name
  {63c224b1-dbe2-4bc5-b144-9cb4bcfa89db}, ! UUID
  {6ad9b6e5-98b8-425f-b7ec-6ca895103fe1}, ! Version UUID
  1366309232,                             ! Creation Timestamp
  1366309232,                             ! Version Timestamp
  {7b7da30d-44df-4d3c-aabe-64271f5f3ce4}; ! Name of Object 1

