
OS:Version,
  {569ebcad-8c59-4624-b6e7-c19c378d12b7}, ! Handle
  0.9.3;                                  ! Version Identifier

OS:SizingPeriod:DesignDay,
  {6ed0cfb3-b289-4bf0-a434-8cc74d196a87}, ! Handle
  LA_CROSSE Ann Clg 2% Condns DP=>MDB,    ! Name
  26.5,                                   ! Maximum Dry-Bulb Temperature {C}
  11.1,                                   ! Daily Dry-Bulb Temperature Range {deltaC}
  21.9,                                   ! Humidity Indicating Conditions at Maximum Dry-Bulb {BasedOnField A3}
  98886,                                  ! Barometric Pressure {Pa}
  5.4,                                    ! Wind Speed {m/s}
  180,                                    ! Wind Direction {deg}
  0,                                      ! Sky Clearness
  0,                                      ! Rain Indicator
  0,                                      ! Snow Indicator
  21,                                     ! Day of Month
  7,                                      ! Month
  SummerDesignDay,                        ! Day Type
  0,                                      ! Daylight Saving Time Indicator
  Dewpoint,                               ! Humidity Indicating Type
  ,                                       ! Humidity Indicating Day Schedule Name
  DefaultMultipliers,                     ! Dry-Bulb Temperature Range Modifier Type
  ,                                       ! Dry-Bulb Temperature Range Modifier Schedule Name
  ASHRAETau,                              ! Solar Model Indicator
  ,                                       ! Beam Solar Day Schedule Name
  ,                                       ! Diffuse Solar Day Schedule Name
  0.431,                                  ! ASHRAE Taub {dimensionless}
  2.126;                                  ! ASHRAE Taud {dimensionless}

OS:ComponentData,
  {ebe0b3c5-f83a-404b-8b22-dd3750e44025}, ! Handle
  Component Data 1,                       ! Name
  {b95671cc-27bd-4d3a-9664-7202487e3bce}, ! UUID
  {1a44f41c-52d2-452e-9c34-62b5c9a25e2c}, ! Version UUID
  1366311504,                             ! Creation Timestamp
  1366311504,                             ! Version Timestamp
  {6ed0cfb3-b289-4bf0-a434-8cc74d196a87}; ! Name of Object 1

