
OS:Version,
  {2560b3bb-2531-49a6-a498-70c7fbf3adae}, ! Handle
  0.9.3;                                  ! Version Identifier

OS:SizingPeriod:DesignDay,
  {1df698c1-67c4-4c9d-8fd4-b31575f513a0}, ! Handle
  Huron Ann Hum_n 99.6% Condns DP=>MCDB,  ! Name
  -25.9,                                  ! Maximum Dry-Bulb Temperature {C}
  0,                                      ! Daily Dry-Bulb Temperature Range {deltaC}
  -30.4,                                  ! Humidity Indicating Conditions at Maximum Dry-Bulb {BasedOnField A3}
  96692,                                  ! Barometric Pressure {Pa}
  4.1,                                    ! Wind Speed {m/s}
  320,                                    ! Wind Direction {deg}
  0,                                      ! Sky Clearness
  0,                                      ! Rain Indicator
  0,                                      ! Snow Indicator
  21,                                     ! Day of Month
  1,                                      ! Month
  WinterDesignDay,                        ! Day Type
  0,                                      ! Daylight Saving Time Indicator
  Dewpoint,                               ! Humidity Indicating Type
  ,                                       ! Humidity Indicating Day Schedule Name
  DefaultMultipliers,                     ! Dry-Bulb Temperature Range Modifier Type
  ,                                       ! Dry-Bulb Temperature Range Modifier Schedule Name
  ASHRAEClearSky;                         ! Solar Model Indicator

OS:ComponentData,
  {1bfd6fda-5b59-46b8-b1cf-2272b741b285}, ! Handle
  Component Data 1,                       ! Name
  {d7fe6f5d-8c9d-4135-a688-e293768fad96}, ! UUID
  {1e9db18c-312e-4af1-9755-dd2f7ce964fd}, ! Version UUID
  1366310403,                             ! Creation Timestamp
  1366310403,                             ! Version Timestamp
  {1df698c1-67c4-4c9d-8fd4-b31575f513a0}; ! Name of Object 1

