
OS:Version,
  {e473588b-3536-41ef-95b7-2209c5235c1c}, ! Handle
  0.9.3;                                  ! Version Identifier

OS:SizingPeriod:DesignDay,
  {94327d25-841e-45a3-910c-0b6ceec3146c}, ! Handle
  Columbia Ann Hum_n 99.6% Condns DP=>MCDB, ! Name
  -15.9,                                  ! Maximum Dry-Bulb Temperature {C}
  0,                                      ! Daily Dry-Bulb Temperature Range {deltaC}
  -22,                                    ! Humidity Indicating Conditions at Maximum Dry-Bulb {BasedOnField A3}
  98076,                                  ! Barometric Pressure {Pa}
  4.4,                                    ! Wind Speed {m/s}
  280,                                    ! Wind Direction {deg}
  0,                                      ! Sky Clearness
  0,                                      ! Rain Indicator
  0,                                      ! Snow Indicator
  21,                                     ! Day of Month
  1,                                      ! Month
  WinterDesignDay,                        ! Day Type
  0,                                      ! Daylight Saving Time Indicator
  Dewpoint,                               ! Humidity Indicating Type
  ,                                       ! Humidity Indicating Day Schedule Name
  DefaultMultipliers,                     ! Dry-Bulb Temperature Range Modifier Type
  ,                                       ! Dry-Bulb Temperature Range Modifier Schedule Name
  ASHRAEClearSky;                         ! Solar Model Indicator

OS:ComponentData,
  {a74d8104-c4b7-4551-be74-28783103e69a}, ! Handle
  Component Data 1,                       ! Name
  {19d69a88-3d54-427e-9f1a-fd25b7bce606}, ! UUID
  {514daada-db9d-44b7-9ed0-6b99f86f2ac5}, ! Version UUID
  1366308485,                             ! Creation Timestamp
  1366308485,                             ! Version Timestamp
  {94327d25-841e-45a3-910c-0b6ceec3146c}; ! Name of Object 1

