
OS:Version,
  {83930e4b-2598-49c6-a4b8-c22a3419d718}, ! Handle
  0.9.3;                                  ! Version Identifier

OS:SizingPeriod:DesignDay,
  {2dfe72d2-b164-40dd-890e-aad5baa689ba}, ! Handle
  Abilene Ann Hum_n 99.6% Condns DP=>MCDB, ! Name
  -2.4,                                   ! Maximum Dry-Bulb Temperature {C}
  0,                                      ! Daily Dry-Bulb Temperature Range {deltaC}
  -15.8,                                  ! Humidity Indicating Conditions at Maximum Dry-Bulb {BasedOnField A3}
  94935,                                  ! Barometric Pressure {Pa}
  5.1,                                    ! Wind Speed {m/s}
  10,                                     ! Wind Direction {deg}
  0,                                      ! Sky Clearness
  0,                                      ! Rain Indicator
  0,                                      ! Snow Indicator
  21,                                     ! Day of Month
  1,                                      ! Month
  WinterDesignDay,                        ! Day Type
  0,                                      ! Daylight Saving Time Indicator
  Dewpoint,                               ! Humidity Indicating Type
  ,                                       ! Humidity Indicating Day Schedule Name
  DefaultMultipliers,                     ! Dry-Bulb Temperature Range Modifier Type
  ,                                       ! Dry-Bulb Temperature Range Modifier Schedule Name
  ASHRAEClearSky;                         ! Solar Model Indicator

