
OS:Version,
  {9222f54c-56fe-4493-9573-790b2fc58332}, ! Handle
  0.9.3;                                  ! Version Identifier

OS:SizingPeriod:DesignDay,
  {0f0ae50c-36f7-40fc-91f1-599a1c996095}, ! Handle
  Helena Regional Airport Ann Clg .4% Condns Enth=>MDB, ! Name
  29,                                     ! Maximum Dry-Bulb Temperature {C}
  16.1,                                   ! Daily Dry-Bulb Temperature Range {deltaC}
  55400,                                  ! Humidity Indicating Conditions at Maximum Dry-Bulb {BasedOnField A3}
  88069,                                  ! Barometric Pressure {Pa}
  4.9,                                    ! Wind Speed {m/s}
  290,                                    ! Wind Direction {deg}
  0,                                      ! Sky Clearness
  0,                                      ! Rain Indicator
  0,                                      ! Snow Indicator
  21,                                     ! Day of Month
  7,                                      ! Month
  SummerDesignDay,                        ! Day Type
  0,                                      ! Daylight Saving Time Indicator
  Enthalpy,                               ! Humidity Indicating Type
  ,                                       ! Humidity Indicating Day Schedule Name
  DefaultMultipliers,                     ! Dry-Bulb Temperature Range Modifier Type
  ,                                       ! Dry-Bulb Temperature Range Modifier Schedule Name
  ASHRAETau,                              ! Solar Model Indicator
  ,                                       ! Beam Solar Day Schedule Name
  ,                                       ! Diffuse Solar Day Schedule Name
  0.38,                                   ! ASHRAE Taub {dimensionless}
  2.232;                                  ! ASHRAE Taud {dimensionless}

OS:ComponentData,
  {37bc5a79-cf62-447e-8135-6e3cfb354b5d}, ! Handle
  Component Data 1,                       ! Name
  {bb6cd4db-9302-481d-8cfa-bf47573b4b29}, ! UUID
  {2515144d-8ed7-461d-9c0f-ebdc647a57f5}, ! Version UUID
  1366308799,                             ! Creation Timestamp
  1366308799,                             ! Version Timestamp
  {0f0ae50c-36f7-40fc-91f1-599a1c996095}; ! Name of Object 1

