
OS:Version,
  {1d21b032-980d-4465-b0f0-fbf46d934d02}, ! Handle
  0.9.3;                                  ! Version Identifier

OS:SizingPeriod:DesignDay,
  {2a035fcc-fdce-4c83-bd3c-03bb1fabf02e}, ! Handle
  GLASGOW Ann Clg 2% Condns DB=>MWB,      ! Name
  30.9,                                   ! Maximum Dry-Bulb Temperature {C}
  14.5,                                   ! Daily Dry-Bulb Temperature Range {deltaC}
  17.1,                                   ! Humidity Indicating Conditions at Maximum Dry-Bulb {BasedOnField A3}
  93194,                                  ! Barometric Pressure {Pa}
  5.4,                                    ! Wind Speed {m/s}
  150,                                    ! Wind Direction {deg}
  0,                                      ! Sky Clearness
  0,                                      ! Rain Indicator
  0,                                      ! Snow Indicator
  21,                                     ! Day of Month
  7,                                      ! Month
  SummerDesignDay,                        ! Day Type
  0,                                      ! Daylight Saving Time Indicator
  Wetbulb,                                ! Humidity Indicating Type
  ,                                       ! Humidity Indicating Day Schedule Name
  DefaultMultipliers,                     ! Dry-Bulb Temperature Range Modifier Type
  ,                                       ! Dry-Bulb Temperature Range Modifier Schedule Name
  ASHRAETau,                              ! Solar Model Indicator
  ,                                       ! Beam Solar Day Schedule Name
  ,                                       ! Diffuse Solar Day Schedule Name
  0.424,                                  ! ASHRAE Taub {dimensionless}
  2.044;                                  ! ASHRAE Taud {dimensionless}

OS:ComponentData,
  {c0369d8d-c95b-4ad0-9693-25305eee3560}, ! Handle
  Component Data 1,                       ! Name
  {c82f82ba-3600-4e92-9590-18e835386aa5}, ! UUID
  {07bc5b1e-9e0d-4a04-9b78-fd772d2da3f4}, ! Version UUID
  1366308754,                             ! Creation Timestamp
  1366308754,                             ! Version Timestamp
  {2a035fcc-fdce-4c83-bd3c-03bb1fabf02e}; ! Name of Object 1

