
OS:Version,
  {9f556a24-2ebd-4431-8cc6-243df9a1f8bf}, ! Handle
  0.9.3;                                  ! Version Identifier

OS:SizingPeriod:DesignDay,
  {5b0678f7-1b40-433e-8173-8fc637f8ca86}, ! Handle
  Lafayette Purdue Univ Ap Ann Clg 2% Condns WB=>MDB, ! Name
  28.7,                                   ! Maximum Dry-Bulb Temperature {C}
  11.1,                                   ! Daily Dry-Bulb Temperature Range {deltaC}
  24.2,                                   ! Humidity Indicating Conditions at Maximum Dry-Bulb {BasedOnField A3}
  99146,                                  ! Barometric Pressure {Pa}
  4.8,                                    ! Wind Speed {m/s}
  230,                                    ! Wind Direction {deg}
  0,                                      ! Sky Clearness
  0,                                      ! Rain Indicator
  0,                                      ! Snow Indicator
  21,                                     ! Day of Month
  7,                                      ! Month
  SummerDesignDay,                        ! Day Type
  0,                                      ! Daylight Saving Time Indicator
  Wetbulb,                                ! Humidity Indicating Type
  ,                                       ! Humidity Indicating Day Schedule Name
  DefaultMultipliers,                     ! Dry-Bulb Temperature Range Modifier Type
  ,                                       ! Dry-Bulb Temperature Range Modifier Schedule Name
  ASHRAETau,                              ! Solar Model Indicator
  ,                                       ! Beam Solar Day Schedule Name
  ,                                       ! Diffuse Solar Day Schedule Name
  0.463,                                  ! ASHRAE Taub {dimensionless}
  2.02;                                   ! ASHRAE Taud {dimensionless}

OS:ComponentData,
  {50835dad-f7e3-4d3b-9e67-94416c50b387}, ! Handle
  Component Data 1,                       ! Name
  {c23f9cc6-a7ee-4a54-8eb6-802033d1d8bc}, ! UUID
  {fd2ddbbc-325f-4d2f-b935-64de00b2ee7f}, ! Version UUID
  1366307472,                             ! Creation Timestamp
  1366307472,                             ! Version Timestamp
  {5b0678f7-1b40-433e-8173-8fc637f8ca86}; ! Name of Object 1

