
OS:Version,
  {9c9c30bb-413d-48d4-9290-12ddfe981d77}, ! Handle
  0.9.3;                                  ! Version Identifier

OS:SizingPeriod:DesignDay,
  {b1a534c8-49ca-4198-9a46-9e3def6f441a}, ! Handle
  Astoria Ann Clg 1% Condns Enth=>MDB,    ! Name
  21.3,                                   ! Maximum Dry-Bulb Temperature {C}
  7.9,                                    ! Daily Dry-Bulb Temperature Range {deltaC}
  48700,                                  ! Humidity Indicating Conditions at Maximum Dry-Bulb {BasedOnField A3}
  101241,                                 ! Barometric Pressure {Pa}
  5.1,                                    ! Wind Speed {m/s}
  310,                                    ! Wind Direction {deg}
  0,                                      ! Sky Clearness
  0,                                      ! Rain Indicator
  0,                                      ! Snow Indicator
  21,                                     ! Day of Month
  8,                                      ! Month
  SummerDesignDay,                        ! Day Type
  0,                                      ! Daylight Saving Time Indicator
  Enthalpy,                               ! Humidity Indicating Type
  ,                                       ! Humidity Indicating Day Schedule Name
  DefaultMultipliers,                     ! Dry-Bulb Temperature Range Modifier Type
  ,                                       ! Dry-Bulb Temperature Range Modifier Schedule Name
  ASHRAETau,                              ! Solar Model Indicator
  ,                                       ! Beam Solar Day Schedule Name
  ,                                       ! Diffuse Solar Day Schedule Name
  0.355,                                  ! ASHRAE Taub {dimensionless}
  2.571;                                  ! ASHRAE Taud {dimensionless}

OS:ComponentData,
  {e3bb56cb-f25a-43e8-a52c-94691e4bec0b}, ! Handle
  Component Data 1,                       ! Name
  {fbecb6da-479a-4be6-ab94-8b4fb96c1dac}, ! UUID
  {1c2dc1f5-75fb-435e-bf6c-84b71c6c1252}, ! Version UUID
  1366309974,                             ! Creation Timestamp
  1366309974,                             ! Version Timestamp
  {b1a534c8-49ca-4198-9a46-9e3def6f441a}; ! Name of Object 1

