
OS:Version,
  {b7afed44-3aea-4676-88a7-b28716c11358}, ! Handle
  0.9.3;                                  ! Version Identifier

OS:SizingPeriod:DesignDay,
  {dacfb69c-2cb8-4cca-9075-b355693f092f}, ! Handle
  Grand Rapids Kent County Int Ann Clg 1% Condns DB=>MWB, ! Name
  30.2,                                   ! Maximum Dry-Bulb Temperature {C}
  11.1,                                   ! Daily Dry-Bulb Temperature Range {deltaC}
  22.1,                                   ! Humidity Indicating Conditions at Maximum Dry-Bulb {BasedOnField A3}
  98451,                                  ! Barometric Pressure {Pa}
  5.8,                                    ! Wind Speed {m/s}
  240,                                    ! Wind Direction {deg}
  0,                                      ! Sky Clearness
  0,                                      ! Rain Indicator
  0,                                      ! Snow Indicator
  21,                                     ! Day of Month
  7,                                      ! Month
  SummerDesignDay,                        ! Day Type
  0,                                      ! Daylight Saving Time Indicator
  Wetbulb,                                ! Humidity Indicating Type
  ,                                       ! Humidity Indicating Day Schedule Name
  DefaultMultipliers,                     ! Dry-Bulb Temperature Range Modifier Type
  ,                                       ! Dry-Bulb Temperature Range Modifier Schedule Name
  ASHRAETau,                              ! Solar Model Indicator
  ,                                       ! Beam Solar Day Schedule Name
  ,                                       ! Diffuse Solar Day Schedule Name
  0.424,                                  ! ASHRAE Taub {dimensionless}
  2.173;                                  ! ASHRAE Taud {dimensionless}

OS:ComponentData,
  {fd367f81-ac76-4dde-919b-f6b70b30a88b}, ! Handle
  Component Data 1,                       ! Name
  {db1100d5-fbc2-4eb9-8a30-525f24d5c1bc}, ! UUID
  {445ebe82-ede2-4159-901d-2ef36b684e51}, ! Version UUID
  1366308014,                             ! Creation Timestamp
  1366308014,                             ! Version Timestamp
  {dacfb69c-2cb8-4cca-9075-b355693f092f}; ! Name of Object 1

