
OS:Version,
  {63e5fa68-c4d8-407f-b2f7-ea4992d38de1}, ! Handle
  0.9.3;                                  ! Version Identifier

OS:SizingPeriod:DesignDay,
  {9e441d60-ea0d-4c6d-816d-351776a8a60a}, ! Handle
  Blue Canyon Ap Ann Clg .4% Condns WB=>MDB, ! Name
  25.9,                                   ! Maximum Dry-Bulb Temperature {C}
  8,                                      ! Daily Dry-Bulb Temperature Range {deltaC}
  17,                                     ! Humidity Indicating Conditions at Maximum Dry-Bulb {BasedOnField A3}
  83431,                                  ! Barometric Pressure {Pa}
  2.6,                                    ! Wind Speed {m/s}
  280,                                    ! Wind Direction {deg}
  0,                                      ! Sky Clearness
  0,                                      ! Rain Indicator
  0,                                      ! Snow Indicator
  21,                                     ! Day of Month
  7,                                      ! Month
  SummerDesignDay,                        ! Day Type
  0,                                      ! Daylight Saving Time Indicator
  Wetbulb,                                ! Humidity Indicating Type
  ,                                       ! Humidity Indicating Day Schedule Name
  DefaultMultipliers,                     ! Dry-Bulb Temperature Range Modifier Type
  ,                                       ! Dry-Bulb Temperature Range Modifier Schedule Name
  ASHRAETau,                              ! Solar Model Indicator
  ,                                       ! Beam Solar Day Schedule Name
  ,                                       ! Diffuse Solar Day Schedule Name
  0.324,                                  ! ASHRAE Taub {dimensionless}
  2.564;                                  ! ASHRAE Taud {dimensionless}

