
OS:Version,
  {63d9f460-b45c-40dd-9c13-6ab279643ffa}, ! Handle
  0.9.3;                                  ! Version Identifier

OS:SizingPeriod:DesignDay,
  {2991b03b-e787-4f31-924f-1dbc0ee58158}, ! Handle
  Duluth Ann Clg 1% Condns Enth=>MDB,     ! Name
  25.7,                                   ! Maximum Dry-Bulb Temperature {C}
  10.9,                                   ! Daily Dry-Bulb Temperature Range {deltaC}
  63700,                                  ! Humidity Indicating Conditions at Maximum Dry-Bulb {BasedOnField A3}
  96242,                                  ! Barometric Pressure {Pa}
  5.2,                                    ! Wind Speed {m/s}
  220,                                    ! Wind Direction {deg}
  0,                                      ! Sky Clearness
  0,                                      ! Rain Indicator
  0,                                      ! Snow Indicator
  21,                                     ! Day of Month
  7,                                      ! Month
  SummerDesignDay,                        ! Day Type
  0,                                      ! Daylight Saving Time Indicator
  Enthalpy,                               ! Humidity Indicating Type
  ,                                       ! Humidity Indicating Day Schedule Name
  DefaultMultipliers,                     ! Dry-Bulb Temperature Range Modifier Type
  ,                                       ! Dry-Bulb Temperature Range Modifier Schedule Name
  ASHRAETau,                              ! Solar Model Indicator
  ,                                       ! Beam Solar Day Schedule Name
  ,                                       ! Diffuse Solar Day Schedule Name
  0.398,                                  ! ASHRAE Taub {dimensionless}
  2.218;                                  ! ASHRAE Taud {dimensionless}

OS:ComponentData,
  {067b1b56-ff41-4252-8a45-af55febf5e66}, ! Handle
  Component Data 1,                       ! Name
  {81ce22a4-1dd7-41d1-8659-e0efc2a49add}, ! UUID
  {b471b381-92bf-4b34-b318-19b7d72d590d}, ! Version UUID
  1366308204,                             ! Creation Timestamp
  1366308204,                             ! Version Timestamp
  {2991b03b-e787-4f31-924f-1dbc0ee58158}; ! Name of Object 1

