
OS:Version,
  {6cc04368-9e54-4fd0-b617-5a85eec5f48c}, ! Handle
  0.9.3;                                  ! Version Identifier

OS:SizingPeriod:DesignDay,
  {306df545-e632-4645-a891-7a587740f673}, ! Handle
  Detroit Metropolitan Arpt Ann Clg 2% Condns WB=>MDB, ! Name
  27.5,                                   ! Maximum Dry-Bulb Temperature {C}
  10.4,                                   ! Daily Dry-Bulb Temperature Range {deltaC}
  23,                                     ! Humidity Indicating Conditions at Maximum Dry-Bulb {BasedOnField A3}
  99016,                                  ! Barometric Pressure {Pa}
  5.9,                                    ! Wind Speed {m/s}
  240,                                    ! Wind Direction {deg}
  0,                                      ! Sky Clearness
  0,                                      ! Rain Indicator
  0,                                      ! Snow Indicator
  21,                                     ! Day of Month
  7,                                      ! Month
  SummerDesignDay,                        ! Day Type
  0,                                      ! Daylight Saving Time Indicator
  Wetbulb,                                ! Humidity Indicating Type
  ,                                       ! Humidity Indicating Day Schedule Name
  DefaultMultipliers,                     ! Dry-Bulb Temperature Range Modifier Type
  ,                                       ! Dry-Bulb Temperature Range Modifier Schedule Name
  ASHRAETau,                              ! Solar Model Indicator
  ,                                       ! Beam Solar Day Schedule Name
  ,                                       ! Diffuse Solar Day Schedule Name
  0.47,                                   ! ASHRAE Taub {dimensionless}
  1.978;                                  ! ASHRAE Taud {dimensionless}

OS:ComponentData,
  {ba55cdb4-1b88-4767-9cb4-7492c228687b}, ! Handle
  Component Data 1,                       ! Name
  {00f83da6-8b7d-4cd2-b5d1-bf0fb2f32d06}, ! UUID
  {be733327-67f1-4b7d-b918-3702521f0aa5}, ! Version UUID
  1366307988,                             ! Creation Timestamp
  1366307988,                             ! Version Timestamp
  {306df545-e632-4645-a891-7a587740f673}; ! Name of Object 1

