
OS:Version,
  {324ace56-54d1-4e24-9f64-b5c4d31a025a}, ! Handle
  0.9.3;                                  ! Version Identifier

OS:SizingPeriod:DesignDay,
  {56eb81ef-b291-47d6-aad2-357b2981f17c}, ! Handle
  Lovelock Ann Clg .4% Condns DB=>MWB,    ! Name
  37.3,                                   ! Maximum Dry-Bulb Temperature {C}
  20.2,                                   ! Daily Dry-Bulb Temperature Range {deltaC}
  17,                                     ! Humidity Indicating Conditions at Maximum Dry-Bulb {BasedOnField A3}
  87844,                                  ! Barometric Pressure {Pa}
  4.1,                                    ! Wind Speed {m/s}
  180,                                    ! Wind Direction {deg}
  0,                                      ! Sky Clearness
  0,                                      ! Rain Indicator
  0,                                      ! Snow Indicator
  21,                                     ! Day of Month
  7,                                      ! Month
  SummerDesignDay,                        ! Day Type
  0,                                      ! Daylight Saving Time Indicator
  Wetbulb,                                ! Humidity Indicating Type
  ,                                       ! Humidity Indicating Day Schedule Name
  DefaultMultipliers,                     ! Dry-Bulb Temperature Range Modifier Type
  ,                                       ! Dry-Bulb Temperature Range Modifier Schedule Name
  ASHRAETau,                              ! Solar Model Indicator
  ,                                       ! Beam Solar Day Schedule Name
  ,                                       ! Diffuse Solar Day Schedule Name
  0.427,                                  ! ASHRAE Taub {dimensionless}
  1.948;                                  ! ASHRAE Taud {dimensionless}

