
OS:Version,
  {cae05418-d403-4991-b22e-a139c4e454e3}, ! Handle
  0.9.3;                                  ! Version Identifier

OS:SizingPeriod:DesignDay,
  {f26eda52-52ad-4d1b-b381-065e7742a1fb}, ! Handle
  Grand Island Ann Clg .4% Condns WB=>MDB, ! Name
  31.8,                                   ! Maximum Dry-Bulb Temperature {C}
  12.2,                                   ! Daily Dry-Bulb Temperature Range {deltaC}
  25.1,                                   ! Humidity Indicating Conditions at Maximum Dry-Bulb {BasedOnField A3}
  94708,                                  ! Barometric Pressure {Pa}
  6.5,                                    ! Wind Speed {m/s}
  180,                                    ! Wind Direction {deg}
  0,                                      ! Sky Clearness
  0,                                      ! Rain Indicator
  0,                                      ! Snow Indicator
  21,                                     ! Day of Month
  7,                                      ! Month
  SummerDesignDay,                        ! Day Type
  0,                                      ! Daylight Saving Time Indicator
  Wetbulb,                                ! Humidity Indicating Type
  ,                                       ! Humidity Indicating Day Schedule Name
  DefaultMultipliers,                     ! Dry-Bulb Temperature Range Modifier Type
  ,                                       ! Dry-Bulb Temperature Range Modifier Schedule Name
  ASHRAETau,                              ! Solar Model Indicator
  ,                                       ! Beam Solar Day Schedule Name
  ,                                       ! Diffuse Solar Day Schedule Name
  0.405,                                  ! ASHRAE Taub {dimensionless}
  2.23;                                   ! ASHRAE Taud {dimensionless}

OS:ComponentData,
  {c4e06f56-4cb3-4185-a21f-1f080ffb59c4}, ! Handle
  Component Data 1,                       ! Name
  {1fb2110b-6877-43be-8431-cddc52f4a339}, ! UUID
  {fb8b08b8-e3d2-4ecb-b5c8-947240c0503f}, ! Version UUID
  1366309108,                             ! Creation Timestamp
  1366309108,                             ! Version Timestamp
  {f26eda52-52ad-4d1b-b381-065e7742a1fb}; ! Name of Object 1

