
OS:Version,
  {cb808368-5a5f-4b40-88ad-581d21f9756e}, ! Handle
  0.9.3;                                  ! Version Identifier

OS:SizingPeriod:DesignDay,
  {711041ac-daa5-4746-8d19-2bbf189ea9d1}, ! Handle
  Alpena County Regional Ap Ann Hum_n 99.6% Condns DP=>MCDB, ! Name
  -19.9,                                  ! Maximum Dry-Bulb Temperature {C}
  0,                                      ! Daily Dry-Bulb Temperature Range {deltaC}
  -24.1,                                  ! Humidity Indicating Conditions at Maximum Dry-Bulb {BasedOnField A3}
  98828,                                  ! Barometric Pressure {Pa}
  2,                                      ! Wind Speed {m/s}
  260,                                    ! Wind Direction {deg}
  0,                                      ! Sky Clearness
  0,                                      ! Rain Indicator
  0,                                      ! Snow Indicator
  21,                                     ! Day of Month
  1,                                      ! Month
  WinterDesignDay,                        ! Day Type
  0,                                      ! Daylight Saving Time Indicator
  Dewpoint,                               ! Humidity Indicating Type
  ,                                       ! Humidity Indicating Day Schedule Name
  DefaultMultipliers,                     ! Dry-Bulb Temperature Range Modifier Type
  ,                                       ! Dry-Bulb Temperature Range Modifier Schedule Name
  ASHRAEClearSky;                         ! Solar Model Indicator

OS:ComponentData,
  {68da8d35-88cc-4268-90a4-7c25e8f9939c}, ! Handle
  Component Data 1,                       ! Name
  {c9fb7856-9ae8-44ac-826f-01f33be5a876}, ! UUID
  {c692b392-0393-44bc-9045-7c42e8df0df1}, ! Version UUID
  1366307948,                             ! Creation Timestamp
  1366307948,                             ! Version Timestamp
  {711041ac-daa5-4746-8d19-2bbf189ea9d1}; ! Name of Object 1

