
OS:Version,
  {058c60db-d414-4e26-b9e7-54e7c13bf4c9}, ! Handle
  0.9.3;                                  ! Version Identifier

OS:SizingPeriod:DesignDay,
  {d07d1654-b8f7-4b09-8cc0-e7e064a598ff}, ! Handle
  Farmington Four Corners Regl Ann Clg 2% Condns DB=>MWB, ! Name
  32.2,                                   ! Maximum Dry-Bulb Temperature {C}
  16.1,                                   ! Daily Dry-Bulb Temperature Range {deltaC}
  15.3,                                   ! Humidity Indicating Conditions at Maximum Dry-Bulb {BasedOnField A3}
  82756,                                  ! Barometric Pressure {Pa}
  4.9,                                    ! Wind Speed {m/s}
  240,                                    ! Wind Direction {deg}
  0,                                      ! Sky Clearness
  0,                                      ! Rain Indicator
  0,                                      ! Snow Indicator
  21,                                     ! Day of Month
  7,                                      ! Month
  SummerDesignDay,                        ! Day Type
  0,                                      ! Daylight Saving Time Indicator
  Wetbulb,                                ! Humidity Indicating Type
  ,                                       ! Humidity Indicating Day Schedule Name
  DefaultMultipliers,                     ! Dry-Bulb Temperature Range Modifier Type
  ,                                       ! Dry-Bulb Temperature Range Modifier Schedule Name
  ASHRAETau,                              ! Solar Model Indicator
  ,                                       ! Beam Solar Day Schedule Name
  ,                                       ! Diffuse Solar Day Schedule Name
  0.402,                                  ! ASHRAE Taub {dimensionless}
  2.092;                                  ! ASHRAE Taud {dimensionless}

OS:ComponentData,
  {07539a00-7d7d-434f-8d0d-879b05a86cce}, ! Handle
  Component Data 1,                       ! Name
  {2c594094-112b-4fbf-8d80-566d9a187bee}, ! UUID
  {a13e7898-9885-46ed-b3b1-a45bee060ee0}, ! Version UUID
  1366309403,                             ! Creation Timestamp
  1366309403,                             ! Version Timestamp
  {d07d1654-b8f7-4b09-8cc0-e7e064a598ff}; ! Name of Object 1

