
OS:Version,
  {66912074-5706-49d5-b694-d91cbb115ef1}, ! Handle
  0.9.3;                                  ! Version Identifier

OS:SizingPeriod:DesignDay,
  {cde526ea-e848-4961-9213-2fc2bd171be6}, ! Handle
  Boise Ann Hum_n 99% Condns DP=>MCDB,    ! Name
  -10.7,                                  ! Maximum Dry-Bulb Temperature {C}
  0,                                      ! Daily Dry-Bulb Temperature Range {deltaC}
  -15.3,                                  ! Humidity Indicating Conditions at Maximum Dry-Bulb {BasedOnField A3}
  91257,                                  ! Barometric Pressure {Pa}
  2.3,                                    ! Wind Speed {m/s}
  120,                                    ! Wind Direction {deg}
  0,                                      ! Sky Clearness
  0,                                      ! Rain Indicator
  0,                                      ! Snow Indicator
  21,                                     ! Day of Month
  12,                                     ! Month
  WinterDesignDay,                        ! Day Type
  0,                                      ! Daylight Saving Time Indicator
  Dewpoint,                               ! Humidity Indicating Type
  ,                                       ! Humidity Indicating Day Schedule Name
  DefaultMultipliers,                     ! Dry-Bulb Temperature Range Modifier Type
  ,                                       ! Dry-Bulb Temperature Range Modifier Schedule Name
  ASHRAEClearSky;                         ! Solar Model Indicator

OS:ComponentData,
  {a755ab0c-7722-47ad-b266-4f3ee7d252de}, ! Handle
  Component Data 1,                       ! Name
  {38db9d77-3b75-436d-813a-da3803a6c490}, ! UUID
  {05204d09-bbc5-4725-8349-645ebc6b12df}, ! Version UUID
  1366307264,                             ! Creation Timestamp
  1366307264,                             ! Version Timestamp
  {cde526ea-e848-4961-9213-2fc2bd171be6}; ! Name of Object 1

