
OS:Version,
  {fc80a0d5-65a4-4cfb-ad6d-837ed36ce74d}, ! Handle
  0.9.3;                                  ! Version Identifier

OS:SizingPeriod:DesignDay,
  {dfb1cd06-5d68-4485-8533-7400a2d1d5f2}, ! Handle
  Aberdeen Regional Arpt Ann Clg .4% Condns DP=>MDB, ! Name
  28,                                     ! Maximum Dry-Bulb Temperature {C}
  12.6,                                   ! Daily Dry-Bulb Temperature Range {deltaC}
  23.1,                                   ! Humidity Indicating Conditions at Maximum Dry-Bulb {BasedOnField A3}
  96634,                                  ! Barometric Pressure {Pa}
  6,                                      ! Wind Speed {m/s}
  180,                                    ! Wind Direction {deg}
  0,                                      ! Sky Clearness
  0,                                      ! Rain Indicator
  0,                                      ! Snow Indicator
  21,                                     ! Day of Month
  7,                                      ! Month
  SummerDesignDay,                        ! Day Type
  0,                                      ! Daylight Saving Time Indicator
  Dewpoint,                               ! Humidity Indicating Type
  ,                                       ! Humidity Indicating Day Schedule Name
  DefaultMultipliers,                     ! Dry-Bulb Temperature Range Modifier Type
  ,                                       ! Dry-Bulb Temperature Range Modifier Schedule Name
  ASHRAETau,                              ! Solar Model Indicator
  ,                                       ! Beam Solar Day Schedule Name
  ,                                       ! Diffuse Solar Day Schedule Name
  0.392,                                  ! ASHRAE Taub {dimensionless}
  2.277;                                  ! ASHRAE Taud {dimensionless}

OS:ComponentData,
  {8c85ec60-5f4b-4a72-9691-ae8749625545}, ! Handle
  Component Data 1,                       ! Name
  {d0781670-2a64-4c63-9018-64c0575c1be4}, ! UUID
  {9ebe6436-2a8f-4171-a578-bbbe117c18b2}, ! Version UUID
  1366310385,                             ! Creation Timestamp
  1366310385,                             ! Version Timestamp
  {dfb1cd06-5d68-4485-8533-7400a2d1d5f2}; ! Name of Object 1

