
OS:Version,
  {caf50c78-580e-469b-abab-bf71eadfca47}, ! Handle
  0.9.3;                                  ! Version Identifier

OS:SizingPeriod:DesignDay,
  {4eddf873-c7ca-4466-8844-48dd7ac80d27}, ! Handle
  Great Falls/Malmstrom Ann Clg 2% Condns DP=>MDB, ! Name
  19.1,                                   ! Maximum Dry-Bulb Temperature {C}
  16,                                     ! Daily Dry-Bulb Temperature Range {deltaC}
  12.2,                                   ! Humidity Indicating Conditions at Maximum Dry-Bulb {BasedOnField A3}
  89060,                                  ! Barometric Pressure {Pa}
  4.9,                                    ! Wind Speed {m/s}
  240,                                    ! Wind Direction {deg}
  0,                                      ! Sky Clearness
  0,                                      ! Rain Indicator
  0,                                      ! Snow Indicator
  21,                                     ! Day of Month
  7,                                      ! Month
  SummerDesignDay,                        ! Day Type
  0,                                      ! Daylight Saving Time Indicator
  Dewpoint,                               ! Humidity Indicating Type
  ,                                       ! Humidity Indicating Day Schedule Name
  DefaultMultipliers,                     ! Dry-Bulb Temperature Range Modifier Type
  ,                                       ! Dry-Bulb Temperature Range Modifier Schedule Name
  ASHRAETau,                              ! Solar Model Indicator
  ,                                       ! Beam Solar Day Schedule Name
  ,                                       ! Diffuse Solar Day Schedule Name
  0.383,                                  ! ASHRAE Taub {dimensionless}
  2.176;                                  ! ASHRAE Taud {dimensionless}

OS:ComponentData,
  {a919ece1-f5cc-42f4-ba38-104057446de2}, ! Handle
  Component Data 1,                       ! Name
  {ba2742cb-9e7a-4225-ad7b-43e145005b2f}, ! UUID
  {381bc9e2-e335-473f-8899-5012d95cf127}, ! Version UUID
  1366308777,                             ! Creation Timestamp
  1366308777,                             ! Version Timestamp
  {4eddf873-c7ca-4466-8844-48dd7ac80d27}; ! Name of Object 1

