
OS:Version,
  {e4f75f23-cb33-4732-8e67-05df3f96d355}, ! Handle
  0.9.3;                                  ! Version Identifier

OS:SizingPeriod:DesignDay,
  {742db143-ea06-4816-9389-180784c77745}, ! Handle
  Hays Muni  Awos Ann Clg 2% Condns Enth=>MDB, ! Name
  31.8,                                   ! Maximum Dry-Bulb Temperature {C}
  14.1,                                   ! Daily Dry-Bulb Temperature Range {deltaC}
  68900,                                  ! Humidity Indicating Conditions at Maximum Dry-Bulb {BasedOnField A3}
  94220,                                  ! Barometric Pressure {Pa}
  7.9,                                    ! Wind Speed {m/s}
  190,                                    ! Wind Direction {deg}
  0,                                      ! Sky Clearness
  0,                                      ! Rain Indicator
  0,                                      ! Snow Indicator
  21,                                     ! Day of Month
  7,                                      ! Month
  SummerDesignDay,                        ! Day Type
  0,                                      ! Daylight Saving Time Indicator
  Enthalpy,                               ! Humidity Indicating Type
  ,                                       ! Humidity Indicating Day Schedule Name
  DefaultMultipliers,                     ! Dry-Bulb Temperature Range Modifier Type
  ,                                       ! Dry-Bulb Temperature Range Modifier Schedule Name
  ASHRAETau,                              ! Solar Model Indicator
  ,                                       ! Beam Solar Day Schedule Name
  ,                                       ! Diffuse Solar Day Schedule Name
  0.433,                                  ! ASHRAE Taub {dimensionless}
  2.099;                                  ! ASHRAE Taud {dimensionless}

OS:ComponentData,
  {e78dafdd-8cbf-4b63-bb9b-79914283aa66}, ! Handle
  Component Data 1,                       ! Name
  {2eea4ac9-e997-479d-8a87-6a0a38a12775}, ! UUID
  {1f2c4aae-b1b1-4d73-b42f-eb49490ab2b3}, ! Version UUID
  1366307547,                             ! Creation Timestamp
  1366307547,                             ! Version Timestamp
  {742db143-ea06-4816-9389-180784c77745}; ! Name of Object 1

