
OS:Version,
  {b5a831a7-a023-42d4-ac88-0afaea1326ab}, ! Handle
  0.9.3;                                  ! Version Identifier

OS:SizingPeriod:DesignDay,
  {656b8f6f-fb57-4c36-a632-da83e6afc400}, ! Handle
  Grand Rapids Awos Ann Htg 99.6% Condns DB, ! Name
  -29,                                    ! Maximum Dry-Bulb Temperature {C}
  0,                                      ! Daily Dry-Bulb Temperature Range {deltaC}
  -29,                                    ! Humidity Indicating Conditions at Maximum Dry-Bulb {BasedOnField A3}
  96461,                                  ! Barometric Pressure {Pa}
  2.2,                                    ! Wind Speed {m/s}
  310,                                    ! Wind Direction {deg}
  0,                                      ! Sky Clearness
  0,                                      ! Rain Indicator
  0,                                      ! Snow Indicator
  21,                                     ! Day of Month
  1,                                      ! Month
  WinterDesignDay,                        ! Day Type
  0,                                      ! Daylight Saving Time Indicator
  Wetbulb,                                ! Humidity Indicating Type
  ,                                       ! Humidity Indicating Day Schedule Name
  DefaultMultipliers,                     ! Dry-Bulb Temperature Range Modifier Type
  ,                                       ! Dry-Bulb Temperature Range Modifier Schedule Name
  ASHRAEClearSky;                         ! Solar Model Indicator

OS:ComponentData,
  {00c25f6a-5a3a-492f-9926-57f163134790}, ! Handle
  Component Data 1,                       ! Name
  {ea04a2f2-6046-4225-956f-8bfcdcf393fc}, ! UUID
  {0d149201-e923-481d-9ca1-7af0ad05ad0d}, ! Version UUID
  1366308245,                             ! Creation Timestamp
  1366308245,                             ! Version Timestamp
  {656b8f6f-fb57-4c36-a632-da83e6afc400}; ! Name of Object 1

