
OS:Version,
  {702caeea-c9ff-44c3-b75f-813a2821bdf7}, ! Handle
  0.9.3;                                  ! Version Identifier

OS:SizingPeriod:DesignDay,
  {7a8f5c34-acda-41bf-b979-6da05d304c2d}, ! Handle
  Chicago/Midway Ann Clg 1% Condns WB=>MDB, ! Name
  29.7,                                   ! Maximum Dry-Bulb Temperature {C}
  8.8,                                    ! Daily Dry-Bulb Temperature Range {deltaC}
  24.5,                                   ! Humidity Indicating Conditions at Maximum Dry-Bulb {BasedOnField A3}
  99099,                                  ! Barometric Pressure {Pa}
  5.6,                                    ! Wind Speed {m/s}
  220,                                    ! Wind Direction {deg}
  0,                                      ! Sky Clearness
  0,                                      ! Rain Indicator
  0,                                      ! Snow Indicator
  21,                                     ! Day of Month
  7,                                      ! Month
  SummerDesignDay,                        ! Day Type
  0,                                      ! Daylight Saving Time Indicator
  Wetbulb,                                ! Humidity Indicating Type
  ,                                       ! Humidity Indicating Day Schedule Name
  DefaultMultipliers,                     ! Dry-Bulb Temperature Range Modifier Type
  ,                                       ! Dry-Bulb Temperature Range Modifier Schedule Name
  ASHRAETau,                              ! Solar Model Indicator
  ,                                       ! Beam Solar Day Schedule Name
  ,                                       ! Diffuse Solar Day Schedule Name
  0.457,                                  ! ASHRAE Taub {dimensionless}
  2.043;                                  ! ASHRAE Taud {dimensionless}

OS:ComponentData,
  {c62a4674-94d0-456c-8a1f-310657b91384}, ! Handle
  Component Data 1,                       ! Name
  {ab9711d6-9fbe-4309-ac4d-0098ac7e9071}, ! UUID
  {ca1d3f7d-d382-47ef-92bb-a5a71b10f143}, ! Version UUID
  1366307339,                             ! Creation Timestamp
  1366307339,                             ! Version Timestamp
  {7a8f5c34-acda-41bf-b979-6da05d304c2d}; ! Name of Object 1

