
OS:Version,
  {be56801f-3fbd-499a-8c82-a28340de7ac6}, ! Handle
  0.9.3;                                  ! Version Identifier

OS:SizingPeriod:DesignDay,
  {8b9c9bb0-36e1-4571-a4a4-1fede655ea5a}, ! Handle
  Bluefield Mercer Co  Nrel Ann Htg 99% Condns DB, ! Name
  -11.1,                                  ! Maximum Dry-Bulb Temperature {C}
  0,                                      ! Daily Dry-Bulb Temperature Range {deltaC}
  -11.1,                                  ! Humidity Indicating Conditions at Maximum Dry-Bulb {BasedOnField A3}
  92043,                                  ! Barometric Pressure {Pa}
  3.2,                                    ! Wind Speed {m/s}
  260,                                    ! Wind Direction {deg}
  0,                                      ! Sky Clearness
  0,                                      ! Rain Indicator
  0,                                      ! Snow Indicator
  21,                                     ! Day of Month
  1,                                      ! Month
  WinterDesignDay,                        ! Day Type
  0,                                      ! Daylight Saving Time Indicator
  Wetbulb,                                ! Humidity Indicating Type
  ,                                       ! Humidity Indicating Day Schedule Name
  DefaultMultipliers,                     ! Dry-Bulb Temperature Range Modifier Type
  ,                                       ! Dry-Bulb Temperature Range Modifier Schedule Name
  ASHRAEClearSky;                         ! Solar Model Indicator

OS:ComponentData,
  {bedb2b92-3376-49bc-9a12-7578f11e5759}, ! Handle
  Component Data 1,                       ! Name
  {3a1fe1c5-2ca0-43a2-9df2-1b283eed7532}, ! UUID
  {f6ad5112-a952-4352-b963-2d1ba7f7933d}, ! Version UUID
  1366311613,                             ! Creation Timestamp
  1366311613,                             ! Version Timestamp
  {8b9c9bb0-36e1-4571-a4a4-1fede655ea5a}; ! Name of Object 1

