
OS:Version,
  {ffba6f5d-168e-4ba8-8cc0-daee8c9b6802}, ! Handle
  0.9.3;                                  ! Version Identifier

OS:SizingPeriod:DesignDay,
  {e64e0b43-5648-48e1-8fa4-f28f97324cdd}, ! Handle
  Los Angeles Intl Arpt Ann Hum_n 99.6% Condns DP=>MCDB, ! Name
  15.2,                                   ! Maximum Dry-Bulb Temperature {C}
  0,                                      ! Daily Dry-Bulb Temperature Range {deltaC}
  -10.6,                                  ! Humidity Indicating Conditions at Maximum Dry-Bulb {BasedOnField A3}
  100965,                                 ! Barometric Pressure {Pa}
  2.4,                                    ! Wind Speed {m/s}
  90,                                     ! Wind Direction {deg}
  0,                                      ! Sky Clearness
  0,                                      ! Rain Indicator
  0,                                      ! Snow Indicator
  21,                                     ! Day of Month
  1,                                      ! Month
  WinterDesignDay,                        ! Day Type
  0,                                      ! Daylight Saving Time Indicator
  Dewpoint,                               ! Humidity Indicating Type
  ,                                       ! Humidity Indicating Day Schedule Name
  DefaultMultipliers,                     ! Dry-Bulb Temperature Range Modifier Type
  ,                                       ! Dry-Bulb Temperature Range Modifier Schedule Name
  ASHRAEClearSky;                         ! Solar Model Indicator

OS:ComponentData,
  {8162261a-d154-4b91-9f4c-bb644a8260e1}, ! Handle
  Component Data 1,                       ! Name
  {9b321ef7-0ce1-4651-bdc2-3cc5e6154b34}, ! UUID
  {224918b3-f810-4e07-8d7c-204069663533}, ! Version UUID
  1366306483,                             ! Creation Timestamp
  1366306483,                             ! Version Timestamp
  {e64e0b43-5648-48e1-8fa4-f28f97324cdd}; ! Name of Object 1

