
OS:Version,
  {40d72a85-9796-4786-a692-5c34cef5bf12}, ! Handle
  0.9.3;                                  ! Version Identifier

OS:SizingPeriod:DesignDay,
  {464b82bb-0c98-4ff6-a1e5-84631873668e}, ! Handle
  Lebanon Municipal Ann Htg 99.6% Condns DB, ! Name
  -22.5,                                  ! Maximum Dry-Bulb Temperature {C}
  0,                                      ! Daily Dry-Bulb Temperature Range {deltaC}
  -22.5,                                  ! Humidity Indicating Conditions at Maximum Dry-Bulb {BasedOnField A3}
  99158,                                  ! Barometric Pressure {Pa}
  1,                                      ! Wind Speed {m/s}
  170,                                    ! Wind Direction {deg}
  0,                                      ! Sky Clearness
  0,                                      ! Rain Indicator
  0,                                      ! Snow Indicator
  21,                                     ! Day of Month
  1,                                      ! Month
  WinterDesignDay,                        ! Day Type
  0,                                      ! Daylight Saving Time Indicator
  Wetbulb,                                ! Humidity Indicating Type
  ,                                       ! Humidity Indicating Day Schedule Name
  DefaultMultipliers,                     ! Dry-Bulb Temperature Range Modifier Type
  ,                                       ! Dry-Bulb Temperature Range Modifier Schedule Name
  ASHRAEClearSky;                         ! Solar Model Indicator

OS:ComponentData,
  {8f950773-f136-4260-beee-e4d6197f6cd4}, ! Handle
  Component Data 1,                       ! Name
  {2b7ca21e-3703-4a99-a2ee-3a83363d6f5f}, ! UUID
  {1e414ab9-2855-4503-870c-998da677637d}, ! Version UUID
  1366309252,                             ! Creation Timestamp
  1366309252,                             ! Version Timestamp
  {464b82bb-0c98-4ff6-a1e5-84631873668e}; ! Name of Object 1

