
OS:Version,
  {41a5fb3d-f301-45d3-88d5-b5596501a46b}, ! Handle
  0.9.3;                                  ! Version Identifier

OS:SizingPeriod:DesignDay,
  {4bd5e466-0edb-4335-ad2a-466a49bf2c82}, ! Handle
  Bristol Tri City Airport Ann Clg 1% Condns DP=>MDB, ! Name
  25.5,                                   ! Maximum Dry-Bulb Temperature {C}
  10.8,                                   ! Daily Dry-Bulb Temperature Range {deltaC}
  21.7,                                   ! Humidity Indicating Conditions at Maximum Dry-Bulb {BasedOnField A3}
  95954,                                  ! Barometric Pressure {Pa}
  3.2,                                    ! Wind Speed {m/s}
  250,                                    ! Wind Direction {deg}
  0,                                      ! Sky Clearness
  0,                                      ! Rain Indicator
  0,                                      ! Snow Indicator
  21,                                     ! Day of Month
  7,                                      ! Month
  SummerDesignDay,                        ! Day Type
  0,                                      ! Daylight Saving Time Indicator
  Dewpoint,                               ! Humidity Indicating Type
  ,                                       ! Humidity Indicating Day Schedule Name
  DefaultMultipliers,                     ! Dry-Bulb Temperature Range Modifier Type
  ,                                       ! Dry-Bulb Temperature Range Modifier Schedule Name
  ASHRAETau,                              ! Solar Model Indicator
  ,                                       ! Beam Solar Day Schedule Name
  ,                                       ! Diffuse Solar Day Schedule Name
  0.541,                                  ! ASHRAE Taub {dimensionless}
  1.782;                                  ! ASHRAE Taud {dimensionless}

OS:ComponentData,
  {b8ec83ad-bca1-4afd-b7fb-d9763f7a882b}, ! Handle
  Component Data 1,                       ! Name
  {c49ceb8d-4958-4705-b064-545139c4e5c5}, ! UUID
  {93975738-f586-4788-942c-b5e5a70140e0}, ! Version UUID
  1366310477,                             ! Creation Timestamp
  1366310477,                             ! Version Timestamp
  {4bd5e466-0edb-4335-ad2a-466a49bf2c82}; ! Name of Object 1

