
OS:Version,
  {cef850c4-1390-44aa-975a-26fbeb092b52}, ! Handle
  0.9.3;                                  ! Version Identifier

OS:SizingPeriod:DesignDay,
  {33d8d089-b445-4e0e-9191-c874cc5d711f}, ! Handle
  Dodge City Ann Htg Wind 99.6% Condns WS=>MCDB, ! Name
  2.9,                                    ! Maximum Dry-Bulb Temperature {C}
  0,                                      ! Daily Dry-Bulb Temperature Range {deltaC}
  2.9,                                    ! Humidity Indicating Conditions at Maximum Dry-Bulb {BasedOnField A3}
  92188,                                  ! Barometric Pressure {Pa}
  15,                                     ! Wind Speed {m/s}
  0,                                      ! Wind Direction {deg}
  0,                                      ! Sky Clearness
  0,                                      ! Rain Indicator
  0,                                      ! Snow Indicator
  21,                                     ! Day of Month
  1,                                      ! Month
  WinterDesignDay,                        ! Day Type
  0,                                      ! Daylight Saving Time Indicator
  Wetbulb,                                ! Humidity Indicating Type
  ,                                       ! Humidity Indicating Day Schedule Name
  DefaultMultipliers,                     ! Dry-Bulb Temperature Range Modifier Type
  ,                                       ! Dry-Bulb Temperature Range Modifier Schedule Name
  ASHRAEClearSky;                         ! Solar Model Indicator

OS:ComponentData,
  {1f783342-a90e-4d8c-a0ac-817ee308ef70}, ! Handle
  Component Data 1,                       ! Name
  {9b8f3acd-4d21-4677-aec9-79f79ce4c42b}, ! UUID
  {31cb899b-6978-421c-8499-4285aca15223}, ! Version UUID
  1366307512,                             ! Creation Timestamp
  1366307512,                             ! Version Timestamp
  {33d8d089-b445-4e0e-9191-c874cc5d711f}; ! Name of Object 1

