
OS:Version,
  {d2001d36-1650-4da3-a658-26019cb5cb02}, ! Handle
  0.9.3;                                  ! Version Identifier

OS:SizingPeriod:DesignDay,
  {3411e282-e68e-40dd-b3b9-62f014f65b62}, ! Handle
  INTERNATIONAL_FALLS Ann Htg Wind 99% Condns WS=>MCDB, ! Name
  -11.7,                                  ! Maximum Dry-Bulb Temperature {C}
  0,                                      ! Daily Dry-Bulb Temperature Range {deltaC}
  -11.7,                                  ! Humidity Indicating Conditions at Maximum Dry-Bulb {BasedOnField A3}
  97063,                                  ! Barometric Pressure {Pa}
  8.9,                                    ! Wind Speed {m/s}
  210,                                    ! Wind Direction {deg}
  0,                                      ! Sky Clearness
  0,                                      ! Rain Indicator
  0,                                      ! Snow Indicator
  21,                                     ! Day of Month
  1,                                      ! Month
  WinterDesignDay,                        ! Day Type
  0,                                      ! Daylight Saving Time Indicator
  Wetbulb,                                ! Humidity Indicating Type
  ,                                       ! Humidity Indicating Day Schedule Name
  DefaultMultipliers,                     ! Dry-Bulb Temperature Range Modifier Type
  ,                                       ! Dry-Bulb Temperature Range Modifier Schedule Name
  ASHRAEClearSky;                         ! Solar Model Indicator

OS:ComponentData,
  {c01c0232-bd39-43a5-9c08-b5f94bb8ddc1}, ! Handle
  Component Data 1,                       ! Name
  {53f497cd-6028-4e7d-bf82-c14698b802cb}, ! UUID
  {0da405f7-82bf-46ee-b92f-5120d7ab5841}, ! Version UUID
  1366308264,                             ! Creation Timestamp
  1366308264,                             ! Version Timestamp
  {3411e282-e68e-40dd-b3b9-62f014f65b62}; ! Name of Object 1

