
OS:Version,
  {66c7315e-c1bf-4fe1-98b5-756c632f34a7}, ! Handle
  0.9.3;                                  ! Version Identifier

OS:SizingPeriod:DesignDay,
  {a4f18861-0314-4b60-892b-d0063b788bb2}, ! Handle
  Dutch Harbor Ann Clg 2% Condns DB=>MWB, ! Name
  13.9,                                   ! Maximum Dry-Bulb Temperature {C}
  4.2,                                    ! Daily Dry-Bulb Temperature Range {deltaC}
  11.3,                                   ! Humidity Indicating Conditions at Maximum Dry-Bulb {BasedOnField A3}
  101277,                                 ! Barometric Pressure {Pa}
  4.9,                                    ! Wind Speed {m/s}
  150,                                    ! Wind Direction {deg}
  0,                                      ! Sky Clearness
  0,                                      ! Rain Indicator
  0,                                      ! Snow Indicator
  21,                                     ! Day of Month
  8,                                      ! Month
  SummerDesignDay,                        ! Day Type
  0,                                      ! Daylight Saving Time Indicator
  Wetbulb,                                ! Humidity Indicating Type
  ,                                       ! Humidity Indicating Day Schedule Name
  DefaultMultipliers,                     ! Dry-Bulb Temperature Range Modifier Type
  ,                                       ! Dry-Bulb Temperature Range Modifier Schedule Name
  ASHRAETau,                              ! Solar Model Indicator
  ,                                       ! Beam Solar Day Schedule Name
  ,                                       ! Diffuse Solar Day Schedule Name
  0.39,                                   ! ASHRAE Taub {dimensionless}
  2.25;                                   ! ASHRAE Taud {dimensionless}

OS:ComponentData,
  {e3060e7c-c4b8-48f1-8a24-9410550c3b86}, ! Handle
  Component Data 1,                       ! Name
  {691a6614-d09e-4b29-8688-9622a1366840}, ! UUID
  {248ce2a5-0420-4427-bba1-07f825cad28e}, ! Version UUID
  1366305602,                             ! Creation Timestamp
  1366305602,                             ! Version Timestamp
  {a4f18861-0314-4b60-892b-d0063b788bb2}; ! Name of Object 1

