
OS:Version,
  {8a87e6a1-3cd8-4d88-92cc-57cca2a88691}, ! Handle
  0.9.3;                                  ! Version Identifier

OS:SizingPeriod:DesignDay,
  {e61fd1f8-d9c9-4706-8a58-0d7b5f405b6d}, ! Handle
  Crane Lake  Awos Ann Clg .4% Condns DB=>MWB, ! Name
  30.1,                                   ! Maximum Dry-Bulb Temperature {C}
  12,                                     ! Daily Dry-Bulb Temperature Range {deltaC}
  21,                                     ! Humidity Indicating Conditions at Maximum Dry-Bulb {BasedOnField A3}
  97190,                                  ! Barometric Pressure {Pa}
  2.5,                                    ! Wind Speed {m/s}
  180,                                    ! Wind Direction {deg}
  0,                                      ! Sky Clearness
  0,                                      ! Rain Indicator
  0,                                      ! Snow Indicator
  21,                                     ! Day of Month
  7,                                      ! Month
  SummerDesignDay,                        ! Day Type
  0,                                      ! Daylight Saving Time Indicator
  Wetbulb,                                ! Humidity Indicating Type
  ,                                       ! Humidity Indicating Day Schedule Name
  DefaultMultipliers,                     ! Dry-Bulb Temperature Range Modifier Type
  ,                                       ! Dry-Bulb Temperature Range Modifier Schedule Name
  ASHRAETau,                              ! Solar Model Indicator
  ,                                       ! Beam Solar Day Schedule Name
  ,                                       ! Diffuse Solar Day Schedule Name
  0.4,                                    ! ASHRAE Taub {dimensionless}
  2.217;                                  ! ASHRAE Taud {dimensionless}

OS:ComponentData,
  {989864a5-aa78-4ca8-a0cd-81c85751b815}, ! Handle
  Component Data 1,                       ! Name
  {93742055-f66e-4191-8506-8036b59e3453}, ! UUID
  {f339e5aa-3030-42d5-86e2-c8c6827ed00e}, ! Version UUID
  1366308184,                             ! Creation Timestamp
  1366308184,                             ! Version Timestamp
  {e61fd1f8-d9c9-4706-8a58-0d7b5f405b6d}; ! Name of Object 1

