
OS:Version,
  {eba27968-2b49-4f2b-907b-81cc668a31e1}, ! Handle
  0.9.3;                                  ! Version Identifier

OS:SizingPeriod:DesignDay,
  {778afc47-2a69-4cf4-8625-10bb5468448b}, ! Handle
  Dover Afb Ann Clg .4% Condns DP=>MDB,   ! Name
  28.1,                                   ! Maximum Dry-Bulb Temperature {C}
  9.1,                                    ! Daily Dry-Bulb Temperature Range {deltaC}
  24.7,                                   ! Humidity Indicating Conditions at Maximum Dry-Bulb {BasedOnField A3}
  101241,                                 ! Barometric Pressure {Pa}
  4.2,                                    ! Wind Speed {m/s}
  240,                                    ! Wind Direction {deg}
  0,                                      ! Sky Clearness
  0,                                      ! Rain Indicator
  0,                                      ! Snow Indicator
  21,                                     ! Day of Month
  7,                                      ! Month
  SummerDesignDay,                        ! Day Type
  0,                                      ! Daylight Saving Time Indicator
  Dewpoint,                               ! Humidity Indicating Type
  ,                                       ! Humidity Indicating Day Schedule Name
  DefaultMultipliers,                     ! Dry-Bulb Temperature Range Modifier Type
  ,                                       ! Dry-Bulb Temperature Range Modifier Schedule Name
  ASHRAETau,                              ! Solar Model Indicator
  ,                                       ! Beam Solar Day Schedule Name
  ,                                       ! Diffuse Solar Day Schedule Name
  0.575,                                  ! ASHRAE Taub {dimensionless}
  1.719;                                  ! ASHRAE Taud {dimensionless}

OS:ComponentData,
  {5bdc0996-c636-4f40-b00b-e6702fb8b8e3}, ! Handle
  Component Data 1,                       ! Name
  {c8857af0-10fe-45b1-aca8-5e7dc6478a5c}, ! UUID
  {9862546e-fc1a-4cec-baf0-fe47b8e1ab68}, ! Version UUID
  1366306770,                             ! Creation Timestamp
  1366306770,                             ! Version Timestamp
  {778afc47-2a69-4cf4-8625-10bb5468448b}; ! Name of Object 1

