
OS:Version,
  {9b2cabaa-c07c-49ae-8fcb-bc961d81d7e7}, ! Handle
  0.9.3;                                  ! Version Identifier

OS:SizingPeriod:DesignDay,
  {50cf2016-6afd-45ed-9970-57463d7e84b0}, ! Handle
  Fort Drum Wheeler S Ann Clg 1% Condns DB=>MWB, ! Name
  28.7,                                   ! Maximum Dry-Bulb Temperature {C}
  10.6,                                   ! Daily Dry-Bulb Temperature Range {deltaC}
  20.8,                                   ! Humidity Indicating Conditions at Maximum Dry-Bulb {BasedOnField A3}
  98816,                                  ! Barometric Pressure {Pa}
  4.5,                                    ! Wind Speed {m/s}
  250,                                    ! Wind Direction {deg}
  0,                                      ! Sky Clearness
  0,                                      ! Rain Indicator
  0,                                      ! Snow Indicator
  21,                                     ! Day of Month
  7,                                      ! Month
  SummerDesignDay,                        ! Day Type
  0,                                      ! Daylight Saving Time Indicator
  Wetbulb,                                ! Humidity Indicating Type
  ,                                       ! Humidity Indicating Day Schedule Name
  DefaultMultipliers,                     ! Dry-Bulb Temperature Range Modifier Type
  ,                                       ! Dry-Bulb Temperature Range Modifier Schedule Name
  ASHRAETau,                              ! Solar Model Indicator
  ,                                       ! Beam Solar Day Schedule Name
  ,                                       ! Diffuse Solar Day Schedule Name
  0.449,                                  ! ASHRAE Taub {dimensionless}
  2.034;                                  ! ASHRAE Taud {dimensionless}

OS:ComponentData,
  {9fb1b171-fa34-4fd9-84d7-cd883e41e5e0}, ! Handle
  Component Data 1,                       ! Name
  {ef634cf4-01b5-42da-9580-a2501a13d384}, ! UUID
  {2927fcc3-f833-42e4-9276-9ed43fe02137}, ! Version UUID
  1366309621,                             ! Creation Timestamp
  1366309621,                             ! Version Timestamp
  {50cf2016-6afd-45ed-9970-57463d7e84b0}; ! Name of Object 1

