
OS:Version,
  {6a660647-b577-4bcd-87d4-485e5dd67bce}, ! Handle
  0.9.3;                                  ! Version Identifier

OS:SizingPeriod:DesignDay,
  {ce01e438-548b-4961-93eb-c87687345f25}, ! Handle
  CHARLESTON Ann Clg 2% Condns Enth=>MDB, ! Name
  28.2,                                   ! Maximum Dry-Bulb Temperature {C}
  10.7,                                   ! Daily Dry-Bulb Temperature Range {deltaC}
  71200,                                  ! Humidity Indicating Conditions at Maximum Dry-Bulb {BasedOnField A3}
  97889,                                  ! Barometric Pressure {Pa}
  2.9,                                    ! Wind Speed {m/s}
  240,                                    ! Wind Direction {deg}
  0,                                      ! Sky Clearness
  0,                                      ! Rain Indicator
  0,                                      ! Snow Indicator
  21,                                     ! Day of Month
  7,                                      ! Month
  SummerDesignDay,                        ! Day Type
  0,                                      ! Daylight Saving Time Indicator
  Enthalpy,                               ! Humidity Indicating Type
  ,                                       ! Humidity Indicating Day Schedule Name
  DefaultMultipliers,                     ! Dry-Bulb Temperature Range Modifier Type
  ,                                       ! Dry-Bulb Temperature Range Modifier Schedule Name
  ASHRAETau,                              ! Solar Model Indicator
  ,                                       ! Beam Solar Day Schedule Name
  ,                                       ! Diffuse Solar Day Schedule Name
  0.513,                                  ! ASHRAE Taub {dimensionless}
  1.859;                                  ! ASHRAE Taud {dimensionless}

OS:ComponentData,
  {b4cad5c3-c1fb-4923-8b12-6bec98310b63}, ! Handle
  Component Data 1,                       ! Name
  {ec60d174-4b72-463b-9677-1bef39e9b433}, ! UUID
  {97adb570-d696-4957-9760-5536c4871eea}, ! Version UUID
  1366311632,                             ! Creation Timestamp
  1366311632,                             ! Version Timestamp
  {ce01e438-548b-4961-93eb-c87687345f25}; ! Name of Object 1

