
OS:Version,
  {c00f12fc-831a-4c9d-90da-9bf87b095244}, ! Handle
  0.9.3;                                  ! Version Identifier

OS:SizingPeriod:DesignDay,
  {af56ff28-c9d8-4955-817d-95b27c0f9fb2}, ! Handle
  Dodge City Ann Clg 1% Condns Enth=>MDB, ! Name
  31.7,                                   ! Maximum Dry-Bulb Temperature {C}
  13.9,                                   ! Daily Dry-Bulb Temperature Range {deltaC}
  71700,                                  ! Humidity Indicating Conditions at Maximum Dry-Bulb {BasedOnField A3}
  92188,                                  ! Barometric Pressure {Pa}
  7.4,                                    ! Wind Speed {m/s}
  180,                                    ! Wind Direction {deg}
  0,                                      ! Sky Clearness
  0,                                      ! Rain Indicator
  0,                                      ! Snow Indicator
  21,                                     ! Day of Month
  7,                                      ! Month
  SummerDesignDay,                        ! Day Type
  0,                                      ! Daylight Saving Time Indicator
  Enthalpy,                               ! Humidity Indicating Type
  ,                                       ! Humidity Indicating Day Schedule Name
  DefaultMultipliers,                     ! Dry-Bulb Temperature Range Modifier Type
  ,                                       ! Dry-Bulb Temperature Range Modifier Schedule Name
  ASHRAETau,                              ! Solar Model Indicator
  ,                                       ! Beam Solar Day Schedule Name
  ,                                       ! Diffuse Solar Day Schedule Name
  0.419,                                  ! ASHRAE Taub {dimensionless}
  2.142;                                  ! ASHRAE Taud {dimensionless}

