
OS:Version,
  {ef324250-c310-4972-a38e-773382c64711}, ! Handle
  0.9.3;                                  ! Version Identifier

OS:SizingPeriod:DesignDay,
  {3abe3a60-f47a-4aaf-87b1-507d4826f9be}, ! Handle
  Butte Bert Mooney Arpt Ann Htg Wind 99% Condns WS=>MCDB, ! Name
  -0.4,                                   ! Maximum Dry-Bulb Temperature {C}
  0,                                      ! Daily Dry-Bulb Temperature Range {deltaC}
  -0.4,                                   ! Humidity Indicating Conditions at Maximum Dry-Bulb {BasedOnField A3}
  82613,                                  ! Barometric Pressure {Pa}
  9.3,                                    ! Wind Speed {m/s}
  180,                                    ! Wind Direction {deg}
  0,                                      ! Sky Clearness
  0,                                      ! Rain Indicator
  0,                                      ! Snow Indicator
  21,                                     ! Day of Month
  12,                                     ! Month
  WinterDesignDay,                        ! Day Type
  0,                                      ! Daylight Saving Time Indicator
  Wetbulb,                                ! Humidity Indicating Type
  ,                                       ! Humidity Indicating Day Schedule Name
  DefaultMultipliers,                     ! Dry-Bulb Temperature Range Modifier Type
  ,                                       ! Dry-Bulb Temperature Range Modifier Schedule Name
  ASHRAEClearSky;                         ! Solar Model Indicator

OS:ComponentData,
  {40dc5523-a1ce-4b1a-b558-e85ff0e2fa25}, ! Handle
  Component Data 1,                       ! Name
  {cc0cc5fd-d022-4ac3-a4d6-6c9459335caf}, ! UUID
  {ecab8bdb-8b3c-4343-883e-1fed343efb3e}, ! Version UUID
  1366308724,                             ! Creation Timestamp
  1366308724,                             ! Version Timestamp
  {3abe3a60-f47a-4aaf-87b1-507d4826f9be}; ! Name of Object 1

