
OS:Version,
  {471da1a0-faf3-4a73-8e00-e6a154205248}, ! Handle
  0.9.3;                                  ! Version Identifier

OS:SizingPeriod:DesignDay,
  {175b5b30-04f5-4be8-975f-7a649cef4949}, ! Handle
  Elkins Elkins Randolph Co Arp Ann Htg Wind 99% Condns WS=>MCDB, ! Name
  2.1,                                    ! Maximum Dry-Bulb Temperature {C}
  0,                                      ! Daily Dry-Bulb Temperature Range {deltaC}
  2.1,                                    ! Humidity Indicating Conditions at Maximum Dry-Bulb {BasedOnField A3}
  94390,                                  ! Barometric Pressure {Pa}
  8.7,                                    ! Wind Speed {m/s}
  260,                                    ! Wind Direction {deg}
  0,                                      ! Sky Clearness
  0,                                      ! Rain Indicator
  0,                                      ! Snow Indicator
  21,                                     ! Day of Month
  1,                                      ! Month
  WinterDesignDay,                        ! Day Type
  0,                                      ! Daylight Saving Time Indicator
  Wetbulb,                                ! Humidity Indicating Type
  ,                                       ! Humidity Indicating Day Schedule Name
  DefaultMultipliers,                     ! Dry-Bulb Temperature Range Modifier Type
  ,                                       ! Dry-Bulb Temperature Range Modifier Schedule Name
  ASHRAEClearSky;                         ! Solar Model Indicator

OS:ComponentData,
  {a03185e7-e147-4d7a-a963-4c88008ce26b}, ! Handle
  Component Data 1,                       ! Name
  {47beba8b-b7d0-47e5-a2fa-394349775c15}, ! UUID
  {f4d2cd47-23d9-4727-8847-be958e7d069e}, ! Version UUID
  1366311640,                             ! Creation Timestamp
  1366311640,                             ! Version Timestamp
  {175b5b30-04f5-4be8-975f-7a649cef4949}; ! Name of Object 1

