
OS:Version,
  {312fa5ab-618c-462d-a407-772c4adea777}, ! Handle
  0.9.3;                                  ! Version Identifier

OS:SizingPeriod:DesignDay,
  {13b5e3d0-d618-4e19-a632-02aea0419101}, ! Handle
  Butte Bert Mooney Arpt Ann Clg 2% Condns Enth=>MDB, ! Name
  24.5,                                   ! Maximum Dry-Bulb Temperature {C}
  18.3,                                   ! Daily Dry-Bulb Temperature Range {deltaC}
  45200,                                  ! Humidity Indicating Conditions at Maximum Dry-Bulb {BasedOnField A3}
  82613,                                  ! Barometric Pressure {Pa}
  5,                                      ! Wind Speed {m/s}
  0,                                      ! Wind Direction {deg}
  0,                                      ! Sky Clearness
  0,                                      ! Rain Indicator
  0,                                      ! Snow Indicator
  21,                                     ! Day of Month
  7,                                      ! Month
  SummerDesignDay,                        ! Day Type
  0,                                      ! Daylight Saving Time Indicator
  Enthalpy,                               ! Humidity Indicating Type
  ,                                       ! Humidity Indicating Day Schedule Name
  DefaultMultipliers,                     ! Dry-Bulb Temperature Range Modifier Type
  ,                                       ! Dry-Bulb Temperature Range Modifier Schedule Name
  ASHRAETau,                              ! Solar Model Indicator
  ,                                       ! Beam Solar Day Schedule Name
  ,                                       ! Diffuse Solar Day Schedule Name
  0.352,                                  ! ASHRAE Taub {dimensionless}
  2.312;                                  ! ASHRAE Taud {dimensionless}

OS:ComponentData,
  {2d5836dd-a8c8-4e31-9db6-6a92ba0b5a79}, ! Handle
  Component Data 1,                       ! Name
  {56401fe2-e8bf-4cb1-bf27-db7b09dd4791}, ! UUID
  {b2842f23-ce35-4fd9-9078-f2c610fa9cf1}, ! Version UUID
  1366308731,                             ! Creation Timestamp
  1366308731,                             ! Version Timestamp
  {13b5e3d0-d618-4e19-a632-02aea0419101}; ! Name of Object 1

