
OS:Version,
  {c584d40e-6178-46e0-b54b-e590c46e43d2}, ! Handle
  0.9.3;                                  ! Version Identifier

OS:SizingPeriod:DesignDay,
  {bc101b2e-5de9-4ec6-9ff0-8a8ad630cefd}, ! Handle
  Fairbanks Eielson A Ann Clg 2% Condns WB=>MDB, ! Name
  21.9,                                   ! Maximum Dry-Bulb Temperature {C}
  10.7,                                   ! Daily Dry-Bulb Temperature Range {deltaC}
  15.7,                                   ! Humidity Indicating Conditions at Maximum Dry-Bulb {BasedOnField A3}
  99335,                                  ! Barometric Pressure {Pa}
  2.7,                                    ! Wind Speed {m/s}
  270,                                    ! Wind Direction {deg}
  0,                                      ! Sky Clearness
  0,                                      ! Rain Indicator
  0,                                      ! Snow Indicator
  21,                                     ! Day of Month
  7,                                      ! Month
  SummerDesignDay,                        ! Day Type
  0,                                      ! Daylight Saving Time Indicator
  Wetbulb,                                ! Humidity Indicating Type
  ,                                       ! Humidity Indicating Day Schedule Name
  DefaultMultipliers,                     ! Dry-Bulb Temperature Range Modifier Type
  ,                                       ! Dry-Bulb Temperature Range Modifier Schedule Name
  ASHRAETau,                              ! Solar Model Indicator
  ,                                       ! Beam Solar Day Schedule Name
  ,                                       ! Diffuse Solar Day Schedule Name
  0.386,                                  ! ASHRAE Taub {dimensionless}
  2.208;                                  ! ASHRAE Taud {dimensionless}

OS:ComponentData,
  {10f3bb2b-734a-4b55-968a-c9b39b95b5a4}, ! Handle
  Component Data 1,                       ! Name
  {1c36c5db-c4e6-4026-9ca5-a77f668fd839}, ! UUID
  {53d20ec5-fc0b-4471-95c8-4fa59bc14e82}, ! Version UUID
  1366305245,                             ! Creation Timestamp
  1366305245,                             ! Version Timestamp
  {bc101b2e-5de9-4ec6-9ff0-8a8ad630cefd}; ! Name of Object 1

