
OS:Version,
  {badedc7b-e6d1-4194-b185-b2746af13b19}, ! Handle
  0.9.3;                                  ! Version Identifier

OS:SizingPeriod:DesignDay,
  {813262f5-dae6-4fe2-8c75-0cdf06df8f69}, ! Handle
  Green Bay Austin Straubel Int Ann Clg 1% Condns Enth=>MDB, ! Name
  27.9,                                   ! Maximum Dry-Bulb Temperature {C}
  11.3,                                   ! Daily Dry-Bulb Temperature Range {deltaC}
  71300,                                  ! Humidity Indicating Conditions at Maximum Dry-Bulb {BasedOnField A3}
  98839,                                  ! Barometric Pressure {Pa}
  5.1,                                    ! Wind Speed {m/s}
  200,                                    ! Wind Direction {deg}
  0,                                      ! Sky Clearness
  0,                                      ! Rain Indicator
  0,                                      ! Snow Indicator
  21,                                     ! Day of Month
  7,                                      ! Month
  SummerDesignDay,                        ! Day Type
  0,                                      ! Daylight Saving Time Indicator
  Enthalpy,                               ! Humidity Indicating Type
  ,                                       ! Humidity Indicating Day Schedule Name
  DefaultMultipliers,                     ! Dry-Bulb Temperature Range Modifier Type
  ,                                       ! Dry-Bulb Temperature Range Modifier Schedule Name
  ASHRAETau,                              ! Solar Model Indicator
  ,                                       ! Beam Solar Day Schedule Name
  ,                                       ! Diffuse Solar Day Schedule Name
  0.432,                                  ! ASHRAE Taub {dimensionless}
  2.118;                                  ! ASHRAE Taud {dimensionless}

OS:ComponentData,
  {64502f4b-f0a6-4711-ab5c-10d7081e5cdf}, ! Handle
  Component Data 1,                       ! Name
  {8bac1880-5655-45e9-b687-7555eeefc211}, ! UUID
  {648629a4-61a5-4114-8200-538ebe774f3e}, ! Version UUID
  1366311491,                             ! Creation Timestamp
  1366311491,                             ! Version Timestamp
  {813262f5-dae6-4fe2-8c75-0cdf06df8f69}; ! Name of Object 1

