
OS:Version,
  {44924bc5-e99e-4d1c-8831-59b2a235a458}, ! Handle
  0.9.3;                                  ! Version Identifier

OS:SizingPeriod:DesignDay,
  {88f366de-a7f9-4643-9f2c-5e960266020b}, ! Handle
  Ellsworth Afb Ann Htg 99% Condns DB,    ! Name
  -19.8,                                  ! Maximum Dry-Bulb Temperature {C}
  0,                                      ! Daily Dry-Bulb Temperature Range {deltaC}
  -19.8,                                  ! Humidity Indicating Conditions at Maximum Dry-Bulb {BasedOnField A3}
  90093,                                  ! Barometric Pressure {Pa}
  3.4,                                    ! Wind Speed {m/s}
  10,                                     ! Wind Direction {deg}
  0,                                      ! Sky Clearness
  0,                                      ! Rain Indicator
  0,                                      ! Snow Indicator
  21,                                     ! Day of Month
  12,                                     ! Month
  WinterDesignDay,                        ! Day Type
  0,                                      ! Daylight Saving Time Indicator
  Wetbulb,                                ! Humidity Indicating Type
  ,                                       ! Humidity Indicating Day Schedule Name
  DefaultMultipliers,                     ! Dry-Bulb Temperature Range Modifier Type
  ,                                       ! Dry-Bulb Temperature Range Modifier Schedule Name
  ASHRAEClearSky;                         ! Solar Model Indicator

OS:ComponentData,
  {56b2a102-7d94-42b6-ac56-f0ea059be666}, ! Handle
  Component Data 1,                       ! Name
  {84272ceb-8fa3-4efa-873a-1c2a3a1d4eeb}, ! UUID
  {8dd37c04-a855-4d97-9f4b-0d7754266e85}, ! Version UUID
  1366310393,                             ! Creation Timestamp
  1366310393,                             ! Version Timestamp
  {88f366de-a7f9-4643-9f2c-5e960266020b}; ! Name of Object 1

