
OS:Version,
  {34de9c23-b221-4e82-988d-7fa9419663ad}, ! Handle
  0.9.3;                                  ! Version Identifier

OS:SizingPeriod:DesignDay,
  {4d45d086-71c1-4fc0-98a0-17353ed5c6d8}, ! Handle
  Covington/Cincinnati O Ann Clg .4% Condns WB=>MDB, ! Name
  30.6,                                   ! Maximum Dry-Bulb Temperature {C}
  10.3,                                   ! Daily Dry-Bulb Temperature Range {deltaC}
  25.2,                                   ! Humidity Indicating Conditions at Maximum Dry-Bulb {BasedOnField A3}
  98158,                                  ! Barometric Pressure {Pa}
  4.3,                                    ! Wind Speed {m/s}
  230,                                    ! Wind Direction {deg}
  0,                                      ! Sky Clearness
  0,                                      ! Rain Indicator
  0,                                      ! Snow Indicator
  21,                                     ! Day of Month
  7,                                      ! Month
  SummerDesignDay,                        ! Day Type
  0,                                      ! Daylight Saving Time Indicator
  Wetbulb,                                ! Humidity Indicating Type
  ,                                       ! Humidity Indicating Day Schedule Name
  DefaultMultipliers,                     ! Dry-Bulb Temperature Range Modifier Type
  ,                                       ! Dry-Bulb Temperature Range Modifier Schedule Name
  ASHRAETau,                              ! Solar Model Indicator
  ,                                       ! Beam Solar Day Schedule Name
  ,                                       ! Diffuse Solar Day Schedule Name
  0.493,                                  ! ASHRAE Taub {dimensionless}
  1.911;                                  ! ASHRAE Taud {dimensionless}

OS:ComponentData,
  {a5d5ab7c-11e4-4888-ba08-ec34a333bf96}, ! Handle
  Component Data 1,                       ! Name
  {8c767ffa-568b-453f-8e79-aa958a65794f}, ! UUID
  {c40a9df7-faf3-4330-8ff5-cb172eb26cef}, ! Version UUID
  1366307618,                             ! Creation Timestamp
  1366307618,                             ! Version Timestamp
  {4d45d086-71c1-4fc0-98a0-17353ed5c6d8}; ! Name of Object 1

