
OS:Version,
  {706a0fb8-14d2-4171-b101-94490247bf53}, ! Handle
  0.9.3;                                  ! Version Identifier

OS:SizingPeriod:DesignDay,
  {e642e64e-e09c-48db-8fe2-904a026c00d0}, ! Handle
  Casper Natrona Co Intl Ap Ann Htg 99% Condns DB, ! Name
  -19,                                    ! Maximum Dry-Bulb Temperature {C}
  0,                                      ! Daily Dry-Bulb Temperature Range {deltaC}
  -19,                                    ! Humidity Indicating Conditions at Maximum Dry-Bulb {BasedOnField A3}
  83246,                                  ! Barometric Pressure {Pa}
  3.8,                                    ! Wind Speed {m/s}
  40,                                     ! Wind Direction {deg}
  0,                                      ! Sky Clearness
  0,                                      ! Rain Indicator
  0,                                      ! Snow Indicator
  21,                                     ! Day of Month
  12,                                     ! Month
  WinterDesignDay,                        ! Day Type
  0,                                      ! Daylight Saving Time Indicator
  Wetbulb,                                ! Humidity Indicating Type
  ,                                       ! Humidity Indicating Day Schedule Name
  DefaultMultipliers,                     ! Dry-Bulb Temperature Range Modifier Type
  ,                                       ! Dry-Bulb Temperature Range Modifier Schedule Name
  ASHRAEClearSky;                         ! Solar Model Indicator

OS:ComponentData,
  {2e84a3b7-6aea-474a-ab62-feb0a6cb4bf3}, ! Handle
  Component Data 1,                       ! Name
  {2ee82866-cf65-4dd1-b75f-f7dc5d5ed5ad}, ! UUID
  {b854b021-8940-40b8-8cff-d170435d12eb}, ! Version UUID
  1366311688,                             ! Creation Timestamp
  1366311688,                             ! Version Timestamp
  {e642e64e-e09c-48db-8fe2-904a026c00d0}; ! Name of Object 1

