
OS:Version,
  {a9374fcb-5253-49f6-b4d4-80e693c1f58c}, ! Handle
  0.9.3;                                  ! Version Identifier

OS:SizingPeriod:DesignDay,
  {e8d8b127-614b-4c2e-bb67-459b071945db}, ! Handle
  Kingsville Ann Clg 2% Condns Enth=>MDB, ! Name
  31.5,                                   ! Maximum Dry-Bulb Temperature {C}
  10.5,                                   ! Daily Dry-Bulb Temperature Range {deltaC}
  83300,                                  ! Humidity Indicating Conditions at Maximum Dry-Bulb {BasedOnField A3}
  101121,                                 ! Barometric Pressure {Pa}
  5.4,                                    ! Wind Speed {m/s}
  130,                                    ! Wind Direction {deg}
  0,                                      ! Sky Clearness
  0,                                      ! Rain Indicator
  0,                                      ! Snow Indicator
  21,                                     ! Day of Month
  7,                                      ! Month
  SummerDesignDay,                        ! Day Type
  0,                                      ! Daylight Saving Time Indicator
  Enthalpy,                               ! Humidity Indicating Type
  ,                                       ! Humidity Indicating Day Schedule Name
  DefaultMultipliers,                     ! Dry-Bulb Temperature Range Modifier Type
  ,                                       ! Dry-Bulb Temperature Range Modifier Schedule Name
  ASHRAETau,                              ! Solar Model Indicator
  ,                                       ! Beam Solar Day Schedule Name
  ,                                       ! Diffuse Solar Day Schedule Name
  0.452,                                  ! ASHRAE Taub {dimensionless}
  2.153;                                  ! ASHRAE Taud {dimensionless}

OS:ComponentData,
  {8327bcfd-b712-4c9f-9415-e14a5b4a6dee}, ! Handle
  Component Data 1,                       ! Name
  {fc2dcd93-4f46-4637-ae33-9b091db40b3b}, ! UUID
  {8308b896-b482-483b-8039-2dde29ab923c}, ! Version UUID
  1366310777,                             ! Creation Timestamp
  1366310777,                             ! Version Timestamp
  {e8d8b127-614b-4c2e-bb67-459b071945db}; ! Name of Object 1

