
OS:Version,
  {94ef959c-a81b-4d0f-8b5a-24f8c289ba65}, ! Handle
  0.9.3;                                  ! Version Identifier

OS:SizingPeriod:DesignDay,
  {5ef7a2c6-a3c0-472d-8f83-7aa377bac1cc}, ! Handle
  Cherry Point MCAS Ann Htg 99.6% Condns DB, ! Name
  -4.7,                                   ! Maximum Dry-Bulb Temperature {C}
  0,                                      ! Daily Dry-Bulb Temperature Range {deltaC}
  -4.7,                                   ! Humidity Indicating Conditions at Maximum Dry-Bulb {BasedOnField A3}
  101193,                                 ! Barometric Pressure {Pa}
  2.4,                                    ! Wind Speed {m/s}
  10,                                     ! Wind Direction {deg}
  0,                                      ! Sky Clearness
  0,                                      ! Rain Indicator
  0,                                      ! Snow Indicator
  21,                                     ! Day of Month
  1,                                      ! Month
  WinterDesignDay,                        ! Day Type
  0,                                      ! Daylight Saving Time Indicator
  Wetbulb,                                ! Humidity Indicating Type
  ,                                       ! Humidity Indicating Day Schedule Name
  DefaultMultipliers,                     ! Dry-Bulb Temperature Range Modifier Type
  ,                                       ! Dry-Bulb Temperature Range Modifier Schedule Name
  ASHRAEClearSky;                         ! Solar Model Indicator

OS:ComponentData,
  {60f430bf-57bc-41c0-8891-dcda3009c5c6}, ! Handle
  Component Data 1,                       ! Name
  {3a94a7ad-9278-4303-a0be-b51e14213163}, ! UUID
  {6f1058b1-4dd7-406c-946c-f876cdc66d0b}, ! Version UUID
  1366308896,                             ! Creation Timestamp
  1366308896,                             ! Version Timestamp
  {5ef7a2c6-a3c0-472d-8f83-7aa377bac1cc}; ! Name of Object 1

