
OS:Version,
  {122f2ba5-13b5-4071-80bc-4c7ab6fac37c}, ! Handle
  0.9.3;                                  ! Version Identifier

OS:SizingPeriod:DesignDay,
  {f9aeb0c4-3d74-427e-b607-f1fff1716502}, ! Handle
  Cape Hatteras Nws Bldg Ann Htg Wind 99.6% Condns WS=>MCDB, ! Name
  14.5,                                   ! Maximum Dry-Bulb Temperature {C}
  0,                                      ! Daily Dry-Bulb Temperature Range {deltaC}
  14.5,                                   ! Humidity Indicating Conditions at Maximum Dry-Bulb {BasedOnField A3}
  101289,                                 ! Barometric Pressure {Pa}
  13.9,                                   ! Wind Speed {m/s}
  0,                                      ! Wind Direction {deg}
  0,                                      ! Sky Clearness
  0,                                      ! Rain Indicator
  0,                                      ! Snow Indicator
  21,                                     ! Day of Month
  1,                                      ! Month
  WinterDesignDay,                        ! Day Type
  0,                                      ! Daylight Saving Time Indicator
  Wetbulb,                                ! Humidity Indicating Type
  ,                                       ! Humidity Indicating Day Schedule Name
  DefaultMultipliers,                     ! Dry-Bulb Temperature Range Modifier Type
  ,                                       ! Dry-Bulb Temperature Range Modifier Schedule Name
  ASHRAEClearSky;                         ! Solar Model Indicator

OS:ComponentData,
  {127c7b49-29f3-4d1c-99bd-750a2a47a5e9}, ! Handle
  Component Data 1,                       ! Name
  {6be924d9-cabe-47a2-9a1c-5e52ad008c31}, ! UUID
  {8de025f5-7974-401a-8229-4ed72ba2a1ce}, ! Version UUID
  1366308879,                             ! Creation Timestamp
  1366308879,                             ! Version Timestamp
  {f9aeb0c4-3d74-427e-b607-f1fff1716502}; ! Name of Object 1

