
OS:Version,
  {7412e5d3-8be1-49e5-b519-d48030ec4db3}, ! Handle
  0.9.3;                                  ! Version Identifier

OS:SizingPeriod:DesignDay,
  {54caf989-a29a-43ae-9388-29fbc05585e6}, ! Handle
  Ewa/Barbers Point NAS Ann Clg .4% Condns DP=>MDB, ! Name
  28.2,                                   ! Maximum Dry-Bulb Temperature {C}
  8.6,                                    ! Daily Dry-Bulb Temperature Range {deltaC}
  24,                                     ! Humidity Indicating Conditions at Maximum Dry-Bulb {BasedOnField A3}
  101145,                                 ! Barometric Pressure {Pa}
  5.1,                                    ! Wind Speed {m/s}
  60,                                     ! Wind Direction {deg}
  0,                                      ! Sky Clearness
  0,                                      ! Rain Indicator
  0,                                      ! Snow Indicator
  21,                                     ! Day of Month
  8,                                      ! Month
  SummerDesignDay,                        ! Day Type
  0,                                      ! Daylight Saving Time Indicator
  Dewpoint,                               ! Humidity Indicating Type
  ,                                       ! Humidity Indicating Day Schedule Name
  DefaultMultipliers,                     ! Dry-Bulb Temperature Range Modifier Type
  ,                                       ! Dry-Bulb Temperature Range Modifier Schedule Name
  ASHRAETau,                              ! Solar Model Indicator
  ,                                       ! Beam Solar Day Schedule Name
  ,                                       ! Diffuse Solar Day Schedule Name
  0.382,                                  ! ASHRAE Taub {dimensionless}
  2.522;                                  ! ASHRAE Taud {dimensionless}

OS:ComponentData,
  {d2e3a2c6-2f8f-4ce6-a181-b6dc9956a76a}, ! Handle
  Component Data 1,                       ! Name
  {8e4215d8-21f3-4266-bb43-f539beccba95}, ! UUID
  {9ed81d87-3c07-4a73-b2ca-98a503ed5791}, ! Version UUID
  1366307070,                             ! Creation Timestamp
  1366307070,                             ! Version Timestamp
  {54caf989-a29a-43ae-9388-29fbc05585e6}; ! Name of Object 1

