
OS:Version,
  {69d3d396-467a-4afa-bc0b-9fcb21863c00}, ! Handle
  0.9.3;                                  ! Version Identifier

OS:SizingPeriod:DesignDay,
  {4e821232-23a9-4021-acc3-c5e3fdaf5a6d}, ! Handle
  Jackson Reynolds Field Ann Htg 99.6% Condns DB, ! Name
  -18.3,                                  ! Maximum Dry-Bulb Temperature {C}
  0,                                      ! Daily Dry-Bulb Temperature Range {deltaC}
  -18.3,                                  ! Humidity Indicating Conditions at Maximum Dry-Bulb {BasedOnField A3}
  97726,                                  ! Barometric Pressure {Pa}
  3.4,                                    ! Wind Speed {m/s}
  230,                                    ! Wind Direction {deg}
  0,                                      ! Sky Clearness
  0,                                      ! Rain Indicator
  0,                                      ! Snow Indicator
  21,                                     ! Day of Month
  1,                                      ! Month
  WinterDesignDay,                        ! Day Type
  0,                                      ! Daylight Saving Time Indicator
  Wetbulb,                                ! Humidity Indicating Type
  ,                                       ! Humidity Indicating Day Schedule Name
  DefaultMultipliers,                     ! Dry-Bulb Temperature Range Modifier Type
  ,                                       ! Dry-Bulb Temperature Range Modifier Schedule Name
  ASHRAEClearSky;                         ! Solar Model Indicator

OS:ComponentData,
  {938e0ebb-5ccd-4abb-9be9-d435ef227754}, ! Handle
  Component Data 1,                       ! Name
  {9478a47f-1b82-4a10-a4dd-b36d5e411845}, ! UUID
  {6f794d03-e951-4aed-82c4-76fae383e4ff}, ! Version UUID
  1366308043,                             ! Creation Timestamp
  1366308043,                             ! Version Timestamp
  {4e821232-23a9-4021-acc3-c5e3fdaf5a6d}; ! Name of Object 1

