
OS:Version,
  {249fdd44-a8f4-437f-8147-4850fcb73f3b}, ! Handle
  0.9.3;                                  ! Version Identifier

OS:SizingPeriod:DesignDay,
  {5ac8ff73-fa71-4d88-b30e-2e87cbb328bc}, ! Handle
  AKRON Ann Hum_n 99.6% Condns DP=>MCDB,  ! Name
  -15.9,                                  ! Maximum Dry-Bulb Temperature {C}
  0,                                      ! Daily Dry-Bulb Temperature Range {deltaC}
  -20.9,                                  ! Humidity Indicating Conditions at Maximum Dry-Bulb {BasedOnField A3}
  96877,                                  ! Barometric Pressure {Pa}
  4.6,                                    ! Wind Speed {m/s}
  240,                                    ! Wind Direction {deg}
  0,                                      ! Sky Clearness
  0,                                      ! Rain Indicator
  0,                                      ! Snow Indicator
  21,                                     ! Day of Month
  1,                                      ! Month
  WinterDesignDay,                        ! Day Type
  0,                                      ! Daylight Saving Time Indicator
  Dewpoint,                               ! Humidity Indicating Type
  ,                                       ! Humidity Indicating Day Schedule Name
  DefaultMultipliers,                     ! Dry-Bulb Temperature Range Modifier Type
  ,                                       ! Dry-Bulb Temperature Range Modifier Schedule Name
  ASHRAEClearSky;                         ! Solar Model Indicator

OS:ComponentData,
  {71d2cb76-d2af-4972-b700-6b6d6a132795}, ! Handle
  Component Data 1,                       ! Name
  {c05d325a-dc07-4c6b-8e39-99f808ee644b}, ! UUID
  {593caf43-c068-458e-b57d-02b188419a2b}, ! Version UUID
  1366309760,                             ! Creation Timestamp
  1366309760,                             ! Version Timestamp
  {5ac8ff73-fa71-4d88-b30e-2e87cbb328bc}; ! Name of Object 1

