
OS:Version,
  {d64c7d93-86e0-45c8-822c-36ea455b0c6e}, ! Handle
  0.9.3;                                  ! Version Identifier

OS:SizingPeriod:DesignDay,
  {367e8e97-d1bb-4326-8fd0-33c66c0934a8}, ! Handle
  Florence Regional Ap Ann Htg Wind 99.6% Condns WS=>MCDB, ! Name
  11.8,                                   ! Maximum Dry-Bulb Temperature {C}
  0,                                      ! Daily Dry-Bulb Temperature Range {deltaC}
  11.8,                                   ! Humidity Indicating Conditions at Maximum Dry-Bulb {BasedOnField A3}
  100798,                                 ! Barometric Pressure {Pa}
  10.4,                                   ! Wind Speed {m/s}
  0,                                      ! Wind Direction {deg}
  0,                                      ! Sky Clearness
  0,                                      ! Rain Indicator
  0,                                      ! Snow Indicator
  21,                                     ! Day of Month
  1,                                      ! Month
  WinterDesignDay,                        ! Day Type
  0,                                      ! Daylight Saving Time Indicator
  Wetbulb,                                ! Humidity Indicating Type
  ,                                       ! Humidity Indicating Day Schedule Name
  DefaultMultipliers,                     ! Dry-Bulb Temperature Range Modifier Type
  ,                                       ! Dry-Bulb Temperature Range Modifier Schedule Name
  ASHRAEClearSky;                         ! Solar Model Indicator

OS:ComponentData,
  {a075f3aa-6cad-421e-a649-c108aa8ec0ae}, ! Handle
  Component Data 1,                       ! Name
  {19233190-0189-4371-a6d8-43298ab7959b}, ! UUID
  {feecb3af-bbdc-49b1-b19e-6744456c31ca}, ! Version UUID
  1366310351,                             ! Creation Timestamp
  1366310351,                             ! Version Timestamp
  {367e8e97-d1bb-4326-8fd0-33c66c0934a8}; ! Name of Object 1

