
OS:Version,
  {823db230-7c05-4467-a1f0-e0aff13f4183}, ! Handle
  0.9.3;                                  ! Version Identifier

OS:SizingPeriod:DesignDay,
  {2f1be070-cce2-4566-a49a-f12927ecc8b6}, ! Handle
  Hutchinson  Awos Ann Clg 2% Condns Enth=>MDB, ! Name
  26.8,                                   ! Maximum Dry-Bulb Temperature {C}
  10.9,                                   ! Daily Dry-Bulb Temperature Range {deltaC}
  69900,                                  ! Humidity Indicating Conditions at Maximum Dry-Bulb {BasedOnField A3}
  97504,                                  ! Barometric Pressure {Pa}
  4.5,                                    ! Wind Speed {m/s}
  170,                                    ! Wind Direction {deg}
  0,                                      ! Sky Clearness
  0,                                      ! Rain Indicator
  0,                                      ! Snow Indicator
  21,                                     ! Day of Month
  7,                                      ! Month
  SummerDesignDay,                        ! Day Type
  0,                                      ! Daylight Saving Time Indicator
  Enthalpy,                               ! Humidity Indicating Type
  ,                                       ! Humidity Indicating Day Schedule Name
  DefaultMultipliers,                     ! Dry-Bulb Temperature Range Modifier Type
  ,                                       ! Dry-Bulb Temperature Range Modifier Schedule Name
  ASHRAETau,                              ! Solar Model Indicator
  ,                                       ! Beam Solar Day Schedule Name
  ,                                       ! Diffuse Solar Day Schedule Name
  0.404,                                  ! ASHRAE Taub {dimensionless}
  2.234;                                  ! ASHRAE Taud {dimensionless}

OS:ComponentData,
  {d9e6f0c9-efaa-47de-9007-c62dea873451}, ! Handle
  Component Data 1,                       ! Name
  {847dfa60-9ca5-483d-b5a0-bfb3f984b953}, ! UUID
  {17daee8b-4bf6-473f-99ef-e3f05f047334}, ! Version UUID
  1366308262,                             ! Creation Timestamp
  1366308262,                             ! Version Timestamp
  {2f1be070-cce2-4566-a49a-f12927ecc8b6}; ! Name of Object 1

