
OS:Version,
  {34afe9e7-c40f-46b4-b880-3a56cacf1602}, ! Handle
  0.9.3;                                  ! Version Identifier

OS:SizingPeriod:DesignDay,
  {c76767e4-6bab-4223-8a40-81830b29e44e}, ! Handle
  BETTLES Ann Clg 2% Condns Enth=>MDB,    ! Name
  20.6,                                   ! Maximum Dry-Bulb Temperature {C}
  10.6,                                   ! Daily Dry-Bulb Temperature Range {deltaC}
  42400,                                  ! Humidity Indicating Conditions at Maximum Dry-Bulb {BasedOnField A3}
  98886,                                  ! Barometric Pressure {Pa}
  3.3,                                    ! Wind Speed {m/s}
  220,                                    ! Wind Direction {deg}
  0,                                      ! Sky Clearness
  0,                                      ! Rain Indicator
  0,                                      ! Snow Indicator
  21,                                     ! Day of Month
  7,                                      ! Month
  SummerDesignDay,                        ! Day Type
  0,                                      ! Daylight Saving Time Indicator
  Enthalpy,                               ! Humidity Indicating Type
  ,                                       ! Humidity Indicating Day Schedule Name
  DefaultMultipliers,                     ! Dry-Bulb Temperature Range Modifier Type
  ,                                       ! Dry-Bulb Temperature Range Modifier Schedule Name
  ASHRAETau,                              ! Solar Model Indicator
  ,                                       ! Beam Solar Day Schedule Name
  ,                                       ! Diffuse Solar Day Schedule Name
  0.389,                                  ! ASHRAE Taub {dimensionless}
  2.131;                                  ! ASHRAE Taud {dimensionless}

OS:ComponentData,
  {183f3d8f-8d33-4eef-93f8-b2f14268e753}, ! Handle
  Component Data 1,                       ! Name
  {2c1f2aa7-420b-4e3a-96a9-eee917eddfe2}, ! UUID
  {e4263782-14d6-4804-b1c2-220c0af0445f}, ! Version UUID
  1366304763,                             ! Creation Timestamp
  1366304763,                             ! Version Timestamp
  {c76767e4-6bab-4223-8a40-81830b29e44e}; ! Name of Object 1

