
OS:Version,
  {9e5d43e7-c6c5-40e4-9942-02c2d8879514}, ! Handle
  0.9.3;                                  ! Version Identifier

OS:SizingPeriod:DesignDay,
  {5920f51c-c2c7-409c-93f4-8bf59011bfc6}, ! Handle
  Aitkin Ndb Awos Ann Htg Wind 99.6% Condns WS=>MCDB, ! Name
  -10.7,                                  ! Maximum Dry-Bulb Temperature {C}
  0,                                      ! Daily Dry-Bulb Temperature Range {deltaC}
  -10.7,                                  ! Humidity Indicating Conditions at Maximum Dry-Bulb {BasedOnField A3}
  96993,                                  ! Barometric Pressure {Pa}
  8.8,                                    ! Wind Speed {m/s}
  300,                                    ! Wind Direction {deg}
  0,                                      ! Sky Clearness
  0,                                      ! Rain Indicator
  0,                                      ! Snow Indicator
  21,                                     ! Day of Month
  1,                                      ! Month
  WinterDesignDay,                        ! Day Type
  0,                                      ! Daylight Saving Time Indicator
  Wetbulb,                                ! Humidity Indicating Type
  ,                                       ! Humidity Indicating Day Schedule Name
  DefaultMultipliers,                     ! Dry-Bulb Temperature Range Modifier Type
  ,                                       ! Dry-Bulb Temperature Range Modifier Schedule Name
  ASHRAEClearSky;                         ! Solar Model Indicator

OS:ComponentData,
  {7d0cab32-8ef9-4c88-a124-6fc7ff21cb25}, ! Handle
  Component Data 1,                       ! Name
  {0273e974-e1c8-4be9-9621-ba438a4096ca}, ! UUID
  {ba8b96eb-203e-4c83-b73c-e8b84877a112}, ! Version UUID
  1366308134,                             ! Creation Timestamp
  1366308134,                             ! Version Timestamp
  {5920f51c-c2c7-409c-93f4-8bf59011bfc6}; ! Name of Object 1

