
OS:Version,
  {3c2e93d3-51c1-49f1-a2c0-9bae58d98002}, ! Handle
  0.9.3;                                  ! Version Identifier

OS:SizingPeriod:DesignDay,
  {d4b015f6-29a9-4bb9-872a-8d1a4b59b7cc}, ! Handle
  AKRON Ann Clg .4% Condns Enth=>MDB,     ! Name
  29.4,                                   ! Maximum Dry-Bulb Temperature {C}
  10.4,                                   ! Daily Dry-Bulb Temperature Range {deltaC}
  74600,                                  ! Humidity Indicating Conditions at Maximum Dry-Bulb {BasedOnField A3}
  96877,                                  ! Barometric Pressure {Pa}
  4.6,                                    ! Wind Speed {m/s}
  230,                                    ! Wind Direction {deg}
  0,                                      ! Sky Clearness
  0,                                      ! Rain Indicator
  0,                                      ! Snow Indicator
  21,                                     ! Day of Month
  7,                                      ! Month
  SummerDesignDay,                        ! Day Type
  0,                                      ! Daylight Saving Time Indicator
  Enthalpy,                               ! Humidity Indicating Type
  ,                                       ! Humidity Indicating Day Schedule Name
  DefaultMultipliers,                     ! Dry-Bulb Temperature Range Modifier Type
  ,                                       ! Dry-Bulb Temperature Range Modifier Schedule Name
  ASHRAETau,                              ! Solar Model Indicator
  ,                                       ! Beam Solar Day Schedule Name
  ,                                       ! Diffuse Solar Day Schedule Name
  0.464,                                  ! ASHRAE Taub {dimensionless}
  1.994;                                  ! ASHRAE Taud {dimensionless}

OS:ComponentData,
  {ecc16eb6-814a-439f-86f5-96bdcd421040}, ! Handle
  Component Data 1,                       ! Name
  {958c018f-4966-49bb-a4fc-9bcf88da5e2a}, ! UUID
  {c13c1f2b-d1c1-4ba0-b480-f79b19776f85}, ! Version UUID
  1366309762,                             ! Creation Timestamp
  1366309762,                             ! Version Timestamp
  {d4b015f6-29a9-4bb9-872a-8d1a4b59b7cc}; ! Name of Object 1

