
OS:Version,
  {71a85923-3a56-41f1-a4bd-7fc3b9c48418}, ! Handle
  0.9.3;                                  ! Version Identifier

OS:SizingPeriod:DesignDay,
  {dbe88970-3801-4d76-b1f9-42a9d968d057}, ! Handle
  Baudette International Ap Ann Clg 1% Condns DB=>MWB, ! Name
  27.9,                                   ! Maximum Dry-Bulb Temperature {C}
  11.5,                                   ! Daily Dry-Bulb Temperature Range {deltaC}
  20.4,                                   ! Humidity Indicating Conditions at Maximum Dry-Bulb {BasedOnField A3}
  97423,                                  ! Barometric Pressure {Pa}
  5,                                      ! Wind Speed {m/s}
  200,                                    ! Wind Direction {deg}
  0,                                      ! Sky Clearness
  0,                                      ! Rain Indicator
  0,                                      ! Snow Indicator
  21,                                     ! Day of Month
  7,                                      ! Month
  SummerDesignDay,                        ! Day Type
  0,                                      ! Daylight Saving Time Indicator
  Wetbulb,                                ! Humidity Indicating Type
  ,                                       ! Humidity Indicating Day Schedule Name
  DefaultMultipliers,                     ! Dry-Bulb Temperature Range Modifier Type
  ,                                       ! Dry-Bulb Temperature Range Modifier Schedule Name
  ASHRAETau,                              ! Solar Model Indicator
  ,                                       ! Beam Solar Day Schedule Name
  ,                                       ! Diffuse Solar Day Schedule Name
  0.397,                                  ! ASHRAE Taub {dimensionless}
  2.236;                                  ! ASHRAE Taud {dimensionless}

OS:ComponentData,
  {9be8a43a-b1b9-46f5-b8b9-a21d82c6babf}, ! Handle
  Component Data 1,                       ! Name
  {ab83f6f5-8186-4442-9495-bb586ac7c2c5}, ! UUID
  {c2ac7968-e907-4ce4-80e6-1775293edf20}, ! Version UUID
  1366308153,                             ! Creation Timestamp
  1366308153,                             ! Version Timestamp
  {dbe88970-3801-4d76-b1f9-42a9d968d057}; ! Name of Object 1

