
OS:Version,
  {b54e2b2a-97bb-4253-9673-12320087c9e6}, ! Handle
  0.9.3;                                  ! Version Identifier

OS:SizingPeriod:DesignDay,
  {199f8c5c-3f34-45b2-8b0b-8a422aeef8a2}, ! Handle
  Hobart Municipal Ap Ann Clg .4% Condns DP=>MDB, ! Name
  27.9,                                   ! Maximum Dry-Bulb Temperature {C}
  13,                                     ! Daily Dry-Bulb Temperature Range {deltaC}
  22.9,                                   ! Humidity Indicating Conditions at Maximum Dry-Bulb {BasedOnField A3}
  95713,                                  ! Barometric Pressure {Pa}
  6.3,                                    ! Wind Speed {m/s}
  170,                                    ! Wind Direction {deg}
  0,                                      ! Sky Clearness
  0,                                      ! Rain Indicator
  0,                                      ! Snow Indicator
  21,                                     ! Day of Month
  7,                                      ! Month
  SummerDesignDay,                        ! Day Type
  0,                                      ! Daylight Saving Time Indicator
  Dewpoint,                               ! Humidity Indicating Type
  ,                                       ! Humidity Indicating Day Schedule Name
  DefaultMultipliers,                     ! Dry-Bulb Temperature Range Modifier Type
  ,                                       ! Dry-Bulb Temperature Range Modifier Schedule Name
  ASHRAETau,                              ! Solar Model Indicator
  ,                                       ! Beam Solar Day Schedule Name
  ,                                       ! Diffuse Solar Day Schedule Name
  0.417,                                  ! ASHRAE Taub {dimensionless}
  2.22;                                   ! ASHRAE Taud {dimensionless}

OS:ComponentData,
  {465ebbdb-4843-4369-944b-52fa645947d6}, ! Handle
  Component Data 1,                       ! Name
  {7988d4b3-8a19-4608-9d54-58918938ca46}, ! UUID
  {accda415-a50a-4794-8323-ae5a8ce456e9}, ! Version UUID
  1366309899,                             ! Creation Timestamp
  1366309899,                             ! Version Timestamp
  {199f8c5c-3f34-45b2-8b0b-8a422aeef8a2}; ! Name of Object 1

