
OS:Version,
  {78a0cc4f-994f-4ab7-87ad-176c5aac57e9}, ! Handle
  0.9.3;                                  ! Version Identifier

OS:SizingPeriod:DesignDay,
  {30d6bc5f-a86e-488d-9f80-58059bf0f84b}, ! Handle
  Holloman Afb Ann Clg .4% Condns DB=>MWB, ! Name
  37.3,                                   ! Maximum Dry-Bulb Temperature {C}
  14.5,                                   ! Daily Dry-Bulb Temperature Range {deltaC}
  17.3,                                   ! Humidity Indicating Conditions at Maximum Dry-Bulb {BasedOnField A3}
  87204,                                  ! Barometric Pressure {Pa}
  4.2,                                    ! Wind Speed {m/s}
  250,                                    ! Wind Direction {deg}
  0,                                      ! Sky Clearness
  0,                                      ! Rain Indicator
  0,                                      ! Snow Indicator
  21,                                     ! Day of Month
  7,                                      ! Month
  SummerDesignDay,                        ! Day Type
  0,                                      ! Daylight Saving Time Indicator
  Wetbulb,                                ! Humidity Indicating Type
  ,                                       ! Humidity Indicating Day Schedule Name
  DefaultMultipliers,                     ! Dry-Bulb Temperature Range Modifier Type
  ,                                       ! Dry-Bulb Temperature Range Modifier Schedule Name
  ASHRAETau,                              ! Solar Model Indicator
  ,                                       ! Beam Solar Day Schedule Name
  ,                                       ! Diffuse Solar Day Schedule Name
  0.514,                                  ! ASHRAE Taub {dimensionless}
  1.765;                                  ! ASHRAE Taud {dimensionless}

OS:ComponentData,
  {951ca4a4-b93c-418b-8b23-be6f50b5ab93}, ! Handle
  Component Data 1,                       ! Name
  {ec52b507-6a58-4e2b-b2db-6ede39271098}, ! UUID
  {d6ee99ac-f3c3-4fff-9174-c7c58cc0dfa8}, ! Version UUID
  1366309413,                             ! Creation Timestamp
  1366309413,                             ! Version Timestamp
  {30d6bc5f-a86e-488d-9f80-58059bf0f84b}; ! Name of Object 1

