
OS:Version,
  {3a2d4905-ce12-4df4-88a9-74685500c3d5}, ! Handle
  0.9.3;                                  ! Version Identifier

OS:SizingPeriod:DesignDay,
  {14fa01e2-d6c5-405a-aaaa-777b3a369b6a}, ! Handle
  EAU_CLAIRE Ann Clg .4% Condns DP=>MDB,  ! Name
  27.8,                                   ! Maximum Dry-Bulb Temperature {C}
  11.5,                                   ! Daily Dry-Bulb Temperature Range {deltaC}
  22.7,                                   ! Humidity Indicating Conditions at Maximum Dry-Bulb {BasedOnField A3}
  98088,                                  ! Barometric Pressure {Pa}
  5.2,                                    ! Wind Speed {m/s}
  190,                                    ! Wind Direction {deg}
  0,                                      ! Sky Clearness
  0,                                      ! Rain Indicator
  0,                                      ! Snow Indicator
  21,                                     ! Day of Month
  7,                                      ! Month
  SummerDesignDay,                        ! Day Type
  0,                                      ! Daylight Saving Time Indicator
  Dewpoint,                               ! Humidity Indicating Type
  ,                                       ! Humidity Indicating Day Schedule Name
  DefaultMultipliers,                     ! Dry-Bulb Temperature Range Modifier Type
  ,                                       ! Dry-Bulb Temperature Range Modifier Schedule Name
  ASHRAETau,                              ! Solar Model Indicator
  ,                                       ! Beam Solar Day Schedule Name
  ,                                       ! Diffuse Solar Day Schedule Name
  0.412,                                  ! ASHRAE Taub {dimensionless}
  2.189;                                  ! ASHRAE Taud {dimensionless}

OS:ComponentData,
  {60faf66f-af78-4b9f-ae6f-216461827fcb}, ! Handle
  Component Data 1,                       ! Name
  {6ed52a45-d7fe-46b4-aa19-75ab474ac7a2}, ! UUID
  {33764c32-4987-43e0-bee8-06dd6b51d5e0}, ! Version UUID
  1366311464,                             ! Creation Timestamp
  1366311464,                             ! Version Timestamp
  {14fa01e2-d6c5-405a-aaaa-777b3a369b6a}; ! Name of Object 1

