
OS:Version,
  {47f889ea-fb69-4bc8-9fe2-3e15fc4fc0fe}, ! Handle
  0.9.3;                                  ! Version Identifier

OS:SizingPeriod:DesignDay,
  {ee178367-1404-4773-b4fb-bd5f4e6fb575}, ! Handle
  El Toro MCAS Ann Clg .4% Condns WB=>MDB, ! Name
  30,                                     ! Maximum Dry-Bulb Temperature {C}
  10.4,                                   ! Daily Dry-Bulb Temperature Range {deltaC}
  22.2,                                   ! Humidity Indicating Conditions at Maximum Dry-Bulb {BasedOnField A3}
  99939,                                  ! Barometric Pressure {Pa}
  2.6,                                    ! Wind Speed {m/s}
  270,                                    ! Wind Direction {deg}
  0,                                      ! Sky Clearness
  0,                                      ! Rain Indicator
  0,                                      ! Snow Indicator
  21,                                     ! Day of Month
  8,                                      ! Month
  SummerDesignDay,                        ! Day Type
  0,                                      ! Daylight Saving Time Indicator
  Wetbulb,                                ! Humidity Indicating Type
  ,                                       ! Humidity Indicating Day Schedule Name
  DefaultMultipliers,                     ! Dry-Bulb Temperature Range Modifier Type
  ,                                       ! Dry-Bulb Temperature Range Modifier Schedule Name
  ASHRAETau,                              ! Solar Model Indicator
  ,                                       ! Beam Solar Day Schedule Name
  ,                                       ! Diffuse Solar Day Schedule Name
  0.436,                                  ! ASHRAE Taub {dimensionless}
  2.109;                                  ! ASHRAE Taud {dimensionless}

OS:ComponentData,
  {ec39d3ec-2d49-4159-9ed3-49a0de680065}, ! Handle
  Component Data 1,                       ! Name
  {63068bac-44b1-4c3d-bec8-134b69a4b75b}, ! UUID
  {7a7419f7-6ac7-4b70-9be7-3ce83da7704b}, ! Version UUID
  1366306423,                             ! Creation Timestamp
  1366306423,                             ! Version Timestamp
  {ee178367-1404-4773-b4fb-bd5f4e6fb575}; ! Name of Object 1

