
OS:Version,
  {08801fcc-0aea-4d25-8f16-aef5f4d56781}, ! Handle
  0.9.3;                                  ! Version Identifier

OS:SizingPeriod:DesignDay,
  {9cd11669-531a-49f3-ac0e-34a38c3109e1}, ! Handle
  Corpus Christi Nas Ann Clg 2% Condns DB=>MWB, ! Name
  32.8,                                   ! Maximum Dry-Bulb Temperature {C}
  6.7,                                    ! Daily Dry-Bulb Temperature Range {deltaC}
  26.1,                                   ! Humidity Indicating Conditions at Maximum Dry-Bulb {BasedOnField A3}
  101253,                                 ! Barometric Pressure {Pa}
  6.1,                                    ! Wind Speed {m/s}
  150,                                    ! Wind Direction {deg}
  0,                                      ! Sky Clearness
  0,                                      ! Rain Indicator
  0,                                      ! Snow Indicator
  21,                                     ! Day of Month
  8,                                      ! Month
  SummerDesignDay,                        ! Day Type
  0,                                      ! Daylight Saving Time Indicator
  Wetbulb,                                ! Humidity Indicating Type
  ,                                       ! Humidity Indicating Day Schedule Name
  DefaultMultipliers,                     ! Dry-Bulb Temperature Range Modifier Type
  ,                                       ! Dry-Bulb Temperature Range Modifier Schedule Name
  ASHRAETau,                              ! Solar Model Indicator
  ,                                       ! Beam Solar Day Schedule Name
  ,                                       ! Diffuse Solar Day Schedule Name
  0.465,                                  ! ASHRAE Taub {dimensionless}
  2.117;                                  ! ASHRAE Taud {dimensionless}

OS:ComponentData,
  {6727ea94-cb53-4d1a-9a94-c71f2bc4fdeb}, ! Handle
  Component Data 1,                       ! Name
  {49fd3ac0-1a91-4af7-a30f-7c97d1282c31}, ! UUID
  {e5f9ba08-c916-4267-b26d-237f12bced27}, ! Version UUID
  1366310634,                             ! Creation Timestamp
  1366310634,                             ! Version Timestamp
  {9cd11669-531a-49f3-ac0e-34a38c3109e1}; ! Name of Object 1

