
OS:Version,
  {af3080e4-85cc-435c-afb4-d9a84d4764f0}, ! Handle
  0.9.3;                                  ! Version Identifier

OS:SizingPeriod:DesignDay,
  {cd22d0ad-5579-447d-b4d5-76fc227cec3e}, ! Handle
  Fort Polk Aaf Ann Clg 2% Condns WB=>MDB, ! Name
  30.5,                                   ! Maximum Dry-Bulb Temperature {C}
  10,                                     ! Daily Dry-Bulb Temperature Range {deltaC}
  25.6,                                   ! Humidity Indicating Conditions at Maximum Dry-Bulb {BasedOnField A3}
  100106,                                 ! Barometric Pressure {Pa}
  2.2,                                    ! Wind Speed {m/s}
  180,                                    ! Wind Direction {deg}
  0,                                      ! Sky Clearness
  0,                                      ! Rain Indicator
  0,                                      ! Snow Indicator
  21,                                     ! Day of Month
  7,                                      ! Month
  SummerDesignDay,                        ! Day Type
  0,                                      ! Daylight Saving Time Indicator
  Wetbulb,                                ! Humidity Indicating Type
  ,                                       ! Humidity Indicating Day Schedule Name
  DefaultMultipliers,                     ! Dry-Bulb Temperature Range Modifier Type
  ,                                       ! Dry-Bulb Temperature Range Modifier Schedule Name
  ASHRAETau,                              ! Solar Model Indicator
  ,                                       ! Beam Solar Day Schedule Name
  ,                                       ! Diffuse Solar Day Schedule Name
  0.512,                                  ! ASHRAE Taub {dimensionless}
  1.937;                                  ! ASHRAE Taud {dimensionless}

