
OS:Version,
  {f32228a3-3ab1-48d1-b2fb-e4aac00c142a}, ! Handle
  0.9.3;                                  ! Version Identifier

OS:SizingPeriod:DesignDay,
  {e58a3245-a4b8-440e-8bd4-cd081121cd4e}, ! Handle
  Indianapolis Intl Ap Ann Hum_n 99% Condns DP=>MCDB, ! Name
  -13.4,                                  ! Maximum Dry-Bulb Temperature {C}
  0,                                      ! Daily Dry-Bulb Temperature Range {deltaC}
  -18.6,                                  ! Humidity Indicating Conditions at Maximum Dry-Bulb {BasedOnField A3}
  98463,                                  ! Barometric Pressure {Pa}
  4.5,                                    ! Wind Speed {m/s}
  270,                                    ! Wind Direction {deg}
  0,                                      ! Sky Clearness
  0,                                      ! Rain Indicator
  0,                                      ! Snow Indicator
  21,                                     ! Day of Month
  1,                                      ! Month
  WinterDesignDay,                        ! Day Type
  0,                                      ! Daylight Saving Time Indicator
  Dewpoint,                               ! Humidity Indicating Type
  ,                                       ! Humidity Indicating Day Schedule Name
  DefaultMultipliers,                     ! Dry-Bulb Temperature Range Modifier Type
  ,                                       ! Dry-Bulb Temperature Range Modifier Schedule Name
  ASHRAEClearSky;                         ! Solar Model Indicator

OS:ComponentData,
  {91fe6fb3-2421-414f-8108-d49c62a8c298}, ! Handle
  Component Data 1,                       ! Name
  {b31509b3-efee-4d09-8287-4b0f89c8a131}, ! UUID
  {e73ee4c0-4e64-4ad1-9045-9c8203aa93d1}, ! Version UUID
  1366307467,                             ! Creation Timestamp
  1366307467,                             ! Version Timestamp
  {e58a3245-a4b8-440e-8bd4-cd081121cd4e}; ! Name of Object 1

