
OS:Version,
  {4d1de9cd-d690-4c81-a3b9-927c527abdb7}, ! Handle
  0.9.3;                                  ! Version Identifier

OS:SizingPeriod:DesignDay,
  {4fe694f0-1500-4930-b810-63ad159368a3}, ! Handle
  Burlington International Ap Ann Clg .4% Condns WB=>MDB, ! Name
  28.8,                                   ! Maximum Dry-Bulb Temperature {C}
  10.7,                                   ! Daily Dry-Bulb Temperature Range {deltaC}
  23.4,                                   ! Humidity Indicating Conditions at Maximum Dry-Bulb {BasedOnField A3}
  100118,                                 ! Barometric Pressure {Pa}
  4.5,                                    ! Wind Speed {m/s}
  170,                                    ! Wind Direction {deg}
  0,                                      ! Sky Clearness
  0,                                      ! Rain Indicator
  0,                                      ! Snow Indicator
  21,                                     ! Day of Month
  7,                                      ! Month
  SummerDesignDay,                        ! Day Type
  0,                                      ! Daylight Saving Time Indicator
  Wetbulb,                                ! Humidity Indicating Type
  ,                                       ! Humidity Indicating Day Schedule Name
  DefaultMultipliers,                     ! Dry-Bulb Temperature Range Modifier Type
  ,                                       ! Dry-Bulb Temperature Range Modifier Schedule Name
  ASHRAETau,                              ! Solar Model Indicator
  ,                                       ! Beam Solar Day Schedule Name
  ,                                       ! Diffuse Solar Day Schedule Name
  0.459,                                  ! ASHRAE Taub {dimensionless}
  2.002;                                  ! ASHRAE Taud {dimensionless}

OS:ComponentData,
  {06216d96-1b9d-4714-8ba0-d1c27d5ee062}, ! Handle
  Component Data 1,                       ! Name
  {14ea6371-6334-429e-ab19-9a06f9662cb9}, ! UUID
  {3384d8d0-3ace-4555-8ef9-cf6d414eefdc}, ! Version UUID
  1366311246,                             ! Creation Timestamp
  1366311246,                             ! Version Timestamp
  {4fe694f0-1500-4930-b810-63ad159368a3}; ! Name of Object 1

