
OS:Version,
  {cf5259ce-57bf-4d0c-aa60-8c4c02a60a64}, ! Handle
  0.9.3;                                  ! Version Identifier

OS:SizingPeriod:DesignDay,
  {4dd4782b-3d8e-4911-a2b9-ac397e7ecff7}, ! Handle
  Jefferson City Mem Ann Clg 1% Condns WB=>MDB, ! Name
  31.3,                                   ! Maximum Dry-Bulb Temperature {C}
  10.5,                                   ! Daily Dry-Bulb Temperature Range {deltaC}
  25.5,                                   ! Humidity Indicating Conditions at Maximum Dry-Bulb {BasedOnField A3}
  99335,                                  ! Barometric Pressure {Pa}
  3.7,                                    ! Wind Speed {m/s}
  220,                                    ! Wind Direction {deg}
  0,                                      ! Sky Clearness
  0,                                      ! Rain Indicator
  0,                                      ! Snow Indicator
  21,                                     ! Day of Month
  7,                                      ! Month
  SummerDesignDay,                        ! Day Type
  0,                                      ! Daylight Saving Time Indicator
  Wetbulb,                                ! Humidity Indicating Type
  ,                                       ! Humidity Indicating Day Schedule Name
  DefaultMultipliers,                     ! Dry-Bulb Temperature Range Modifier Type
  ,                                       ! Dry-Bulb Temperature Range Modifier Schedule Name
  ASHRAETau,                              ! Solar Model Indicator
  ,                                       ! Beam Solar Day Schedule Name
  ,                                       ! Diffuse Solar Day Schedule Name
  0.459,                                  ! ASHRAE Taub {dimensionless}
  2.071;                                  ! ASHRAE Taud {dimensionless}

OS:ComponentData,
  {ca9508f9-3438-4f97-8b4b-44ed2e8b884a}, ! Handle
  Component Data 1,                       ! Name
  {022dc3ed-a6fc-4871-bc07-d013ccf9e94d}, ! UUID
  {2e3ecb8e-92b4-44ea-afa4-f51124bb7403}, ! Version UUID
  1366308502,                             ! Creation Timestamp
  1366308502,                             ! Version Timestamp
  {4dd4782b-3d8e-4911-a2b9-ac397e7ecff7}; ! Name of Object 1

