
OS:Version,
  {4c58c139-d1f7-4835-a2ff-308ea5af9342}, ! Handle
  0.9.3;                                  ! Version Identifier

OS:SizingPeriod:DesignDay,
  {85bea6cf-8adc-41ac-9286-69088dcb7448}, ! Handle
  Flying Cloud Ann Clg .4% Condns DB=>MWB, ! Name
  32.7,                                   ! Maximum Dry-Bulb Temperature {C}
  10.1,                                   ! Daily Dry-Bulb Temperature Range {deltaC}
  23.6,                                   ! Humidity Indicating Conditions at Maximum Dry-Bulb {BasedOnField A3}
  97971,                                  ! Barometric Pressure {Pa}
  5.3,                                    ! Wind Speed {m/s}
  180,                                    ! Wind Direction {deg}
  0,                                      ! Sky Clearness
  0,                                      ! Rain Indicator
  0,                                      ! Snow Indicator
  21,                                     ! Day of Month
  7,                                      ! Month
  SummerDesignDay,                        ! Day Type
  0,                                      ! Daylight Saving Time Indicator
  Wetbulb,                                ! Humidity Indicating Type
  ,                                       ! Humidity Indicating Day Schedule Name
  DefaultMultipliers,                     ! Dry-Bulb Temperature Range Modifier Type
  ,                                       ! Dry-Bulb Temperature Range Modifier Schedule Name
  ASHRAETau,                              ! Solar Model Indicator
  ,                                       ! Beam Solar Day Schedule Name
  ,                                       ! Diffuse Solar Day Schedule Name
  0.416,                                  ! ASHRAE Taub {dimensionless}
  2.176;                                  ! ASHRAE Taud {dimensionless}

OS:ComponentData,
  {5af59b9f-73aa-4aac-b00f-7c0d169182c8}, ! Handle
  Component Data 1,                       ! Name
  {366bd57c-1a4d-471f-8c2b-b5ffa299abfd}, ! UUID
  {03770bbb-3682-4062-a2b9-c0fcad385c4c}, ! Version UUID
  1366308211,                             ! Creation Timestamp
  1366308211,                             ! Version Timestamp
  {85bea6cf-8adc-41ac-9286-69088dcb7448}; ! Name of Object 1

