
OS:Version,
  {6e083d19-52b5-4d1b-9f5b-3ddf56db6575}, ! Handle
  0.9.3;                                  ! Version Identifier

OS:SizingPeriod:DesignDay,
  {43255d24-9962-4342-b256-7255df87b905}, ! Handle
  KALISPELL Ann Clg .4% Condns DP=>MDB,   ! Name
  20.8,                                   ! Maximum Dry-Bulb Temperature {C}
  17,                                     ! Daily Dry-Bulb Temperature Range {deltaC}
  15.3,                                   ! Humidity Indicating Conditions at Maximum Dry-Bulb {BasedOnField A3}
  90926,                                  ! Barometric Pressure {Pa}
  3.6,                                    ! Wind Speed {m/s}
  160,                                    ! Wind Direction {deg}
  0,                                      ! Sky Clearness
  0,                                      ! Rain Indicator
  0,                                      ! Snow Indicator
  21,                                     ! Day of Month
  7,                                      ! Month
  SummerDesignDay,                        ! Day Type
  0,                                      ! Daylight Saving Time Indicator
  Dewpoint,                               ! Humidity Indicating Type
  ,                                       ! Humidity Indicating Day Schedule Name
  DefaultMultipliers,                     ! Dry-Bulb Temperature Range Modifier Type
  ,                                       ! Dry-Bulb Temperature Range Modifier Schedule Name
  ASHRAETau,                              ! Solar Model Indicator
  ,                                       ! Beam Solar Day Schedule Name
  ,                                       ! Diffuse Solar Day Schedule Name
  0.355,                                  ! ASHRAE Taub {dimensionless}
  2.406;                                  ! ASHRAE Taud {dimensionless}

