
OS:Version,
  {6dd8f3af-139f-4f94-bd14-a107770d4973}, ! Handle
  0.9.3;                                  ! Version Identifier

OS:SizingPeriod:DesignDay,
  {cf8d813a-9cfd-466e-b5de-9ca84eb2d133}, ! Handle
  Green Bay Ann Htg Wind 99.6% Condns WS=>MCDB, ! Name
  -9.1,                                   ! Maximum Dry-Bulb Temperature {C}
  0,                                      ! Daily Dry-Bulb Temperature Range {deltaC}
  -9.1,                                   ! Humidity Indicating Conditions at Maximum Dry-Bulb {BasedOnField A3}
  98780,                                  ! Barometric Pressure {Pa}
  11.7,                                   ! Wind Speed {m/s}
  280,                                    ! Wind Direction {deg}
  0,                                      ! Sky Clearness
  0,                                      ! Rain Indicator
  0,                                      ! Snow Indicator
  21,                                     ! Day of Month
  1,                                      ! Month
  WinterDesignDay,                        ! Day Type
  0,                                      ! Daylight Saving Time Indicator
  Wetbulb,                                ! Humidity Indicating Type
  ,                                       ! Humidity Indicating Day Schedule Name
  DefaultMultipliers,                     ! Dry-Bulb Temperature Range Modifier Type
  ,                                       ! Dry-Bulb Temperature Range Modifier Schedule Name
  ASHRAEClearSky;                         ! Solar Model Indicator

OS:ComponentData,
  {a0d8f938-b673-493e-b713-78de472c511f}, ! Handle
  Component Data 1,                       ! Name
  {017acf31-6c01-44fa-8626-3aba9f270d93}, ! UUID
  {5956feec-2ca8-4558-bcc3-75bac47982d2}, ! Version UUID
  1366311483,                             ! Creation Timestamp
  1366311483,                             ! Version Timestamp
  {cf8d813a-9cfd-466e-b5de-9ca84eb2d133}; ! Name of Object 1

