
OS:Version,
  {208a84e5-fc0f-4eea-a502-bea59690d45e}, ! Handle
  0.9.3;                                  ! Version Identifier

OS:SizingPeriod:DesignDay,
  {2cb3ac05-5e1a-4cc7-b523-3a988bd813c5}, ! Handle
  Kansas City Downtown Ap Ann Clg 2% Condns Enth=>MDB, ! Name
  31.3,                                   ! Maximum Dry-Bulb Temperature {C}
  9.5,                                    ! Daily Dry-Bulb Temperature Range {deltaC}
  77300,                                  ! Humidity Indicating Conditions at Maximum Dry-Bulb {BasedOnField A3}
  98639,                                  ! Barometric Pressure {Pa}
  5.4,                                    ! Wind Speed {m/s}
  210,                                    ! Wind Direction {deg}
  0,                                      ! Sky Clearness
  0,                                      ! Rain Indicator
  0,                                      ! Snow Indicator
  21,                                     ! Day of Month
  7,                                      ! Month
  SummerDesignDay,                        ! Day Type
  0,                                      ! Daylight Saving Time Indicator
  Enthalpy,                               ! Humidity Indicating Type
  ,                                       ! Humidity Indicating Day Schedule Name
  DefaultMultipliers,                     ! Dry-Bulb Temperature Range Modifier Type
  ,                                       ! Dry-Bulb Temperature Range Modifier Schedule Name
  ASHRAETau,                              ! Solar Model Indicator
  ,                                       ! Beam Solar Day Schedule Name
  ,                                       ! Diffuse Solar Day Schedule Name
  0.445,                                  ! ASHRAE Taub {dimensionless}
  2.122;                                  ! ASHRAE Taud {dimensionless}

OS:ComponentData,
  {ed05064e-161b-4192-ba7e-1995e1bb74ba}, ! Handle
  Component Data 1,                       ! Name
  {cfaed39b-4a23-49df-a746-87eae9f2f7b3}, ! UUID
  {46dd4f17-602e-41ed-b020-f95e31e5f495}, ! Version UUID
  1366308528,                             ! Creation Timestamp
  1366308528,                             ! Version Timestamp
  {2cb3ac05-5e1a-4cc7-b523-3a988bd813c5}; ! Name of Object 1

