
OS:Version,
  {52d8feab-eb2b-4341-8f43-6c54bf312fed}, ! Handle
  0.9.3;                                  ! Version Identifier

OS:SizingPeriod:DesignDay,
  {5d221bc5-6eb0-4c90-b781-abe56c34670c}, ! Handle
  Beaufort Mcas Ann Htg 99% Condns DB,    ! Name
  -0.5,                                   ! Maximum Dry-Bulb Temperature {C}
  0,                                      ! Daily Dry-Bulb Temperature Range {deltaC}
  -0.5,                                   ! Humidity Indicating Conditions at Maximum Dry-Bulb {BasedOnField A3}
  101205,                                 ! Barometric Pressure {Pa}
  2,                                      ! Wind Speed {m/s}
  350,                                    ! Wind Direction {deg}
  0,                                      ! Sky Clearness
  0,                                      ! Rain Indicator
  0,                                      ! Snow Indicator
  21,                                     ! Day of Month
  1,                                      ! Month
  WinterDesignDay,                        ! Day Type
  0,                                      ! Daylight Saving Time Indicator
  Wetbulb,                                ! Humidity Indicating Type
  ,                                       ! Humidity Indicating Day Schedule Name
  DefaultMultipliers,                     ! Dry-Bulb Temperature Range Modifier Type
  ,                                       ! Dry-Bulb Temperature Range Modifier Schedule Name
  ASHRAEClearSky;                         ! Solar Model Indicator

OS:ComponentData,
  {213c9992-052d-49cf-a43f-0ca8681f5477}, ! Handle
  Component Data 1,                       ! Name
  {95350585-9989-4d83-bfa0-02fa28d856ac}, ! UUID
  {d4ff13ef-c0d5-4e4c-aa65-714cb46ca01c}, ! Version UUID
  1366310316,                             ! Creation Timestamp
  1366310316,                             ! Version Timestamp
  {5d221bc5-6eb0-4c90-b781-abe56c34670c}; ! Name of Object 1

