
OS:Version,
  {c63e01d5-4379-438a-a921-54dc8603f882}, ! Handle
  0.9.3;                                  ! Version Identifier

OS:SizingPeriod:DesignDay,
  {9f487dcf-153b-4701-978c-835dda06ddae}, ! Handle
  Eveleth Muni  Awos Ann Clg .4% Condns Enth=>MDB, ! Name
  27.5,                                   ! Maximum Dry-Bulb Temperature {C}
  13.1,                                   ! Daily Dry-Bulb Temperature Range {deltaC}
  70000,                                  ! Humidity Indicating Conditions at Maximum Dry-Bulb {BasedOnField A3}
  96369,                                  ! Barometric Pressure {Pa}
  4.7,                                    ! Wind Speed {m/s}
  200,                                    ! Wind Direction {deg}
  0,                                      ! Sky Clearness
  0,                                      ! Rain Indicator
  0,                                      ! Snow Indicator
  21,                                     ! Day of Month
  7,                                      ! Month
  SummerDesignDay,                        ! Day Type
  0,                                      ! Daylight Saving Time Indicator
  Enthalpy,                               ! Humidity Indicating Type
  ,                                       ! Humidity Indicating Day Schedule Name
  DefaultMultipliers,                     ! Dry-Bulb Temperature Range Modifier Type
  ,                                       ! Dry-Bulb Temperature Range Modifier Schedule Name
  ASHRAETau,                              ! Solar Model Indicator
  ,                                       ! Beam Solar Day Schedule Name
  ,                                       ! Diffuse Solar Day Schedule Name
  0.403,                                  ! ASHRAE Taub {dimensionless}
  2.188;                                  ! ASHRAE Taud {dimensionless}

