
OS:Version,
  {5d22e53a-3842-41e4-841b-1a566bb39f4a}, ! Handle
  0.9.3;                                  ! Version Identifier

OS:SizingPeriod:DesignDay,
  {a8bb9e31-ff44-428d-81f1-69e3d5cd8559}, ! Handle
  Eveleth Muni  Awos Ann Clg .4% Condns Enth=>MDB, ! Name
  27.5,                                   ! Maximum Dry-Bulb Temperature {C}
  13.1,                                   ! Daily Dry-Bulb Temperature Range {deltaC}
  70000,                                  ! Humidity Indicating Conditions at Maximum Dry-Bulb {BasedOnField A3}
  96369,                                  ! Barometric Pressure {Pa}
  4.7,                                    ! Wind Speed {m/s}
  200,                                    ! Wind Direction {deg}
  0,                                      ! Sky Clearness
  0,                                      ! Rain Indicator
  0,                                      ! Snow Indicator
  21,                                     ! Day of Month
  7,                                      ! Month
  SummerDesignDay,                        ! Day Type
  0,                                      ! Daylight Saving Time Indicator
  Enthalpy,                               ! Humidity Indicating Type
  ,                                       ! Humidity Indicating Day Schedule Name
  DefaultMultipliers,                     ! Dry-Bulb Temperature Range Modifier Type
  ,                                       ! Dry-Bulb Temperature Range Modifier Schedule Name
  ASHRAETau,                              ! Solar Model Indicator
  ,                                       ! Beam Solar Day Schedule Name
  ,                                       ! Diffuse Solar Day Schedule Name
  0.403,                                  ! ASHRAE Taub {dimensionless}
  2.188;                                  ! ASHRAE Taud {dimensionless}

OS:ComponentData,
  {9d8f5228-249d-45a4-bfc6-e3b131fbfc09}, ! Handle
  Component Data 1,                       ! Name
  {c303a559-3964-408b-b1ce-3477d8082021}, ! UUID
  {86833fe6-ea2d-4e32-ac56-ac1ddfd77168}, ! Version UUID
  1366308221,                             ! Creation Timestamp
  1366308221,                             ! Version Timestamp
  {a8bb9e31-ff44-428d-81f1-69e3d5cd8559}; ! Name of Object 1

