
OS:Version,
  {0fba2d1a-289a-40d4-afa8-11a1f928bb34}, ! Handle
  0.9.3;                                  ! Version Identifier

OS:SizingPeriod:DesignDay,
  {80dcc119-7034-43c8-9578-75daa4519d4d}, ! Handle
  HONOLULU Ann Clg .4% Condns Enth=>MDB,  ! Name
  29.3,                                   ! Maximum Dry-Bulb Temperature {C}
  7.1,                                    ! Daily Dry-Bulb Temperature Range {deltaC}
  76300,                                  ! Humidity Indicating Conditions at Maximum Dry-Bulb {BasedOnField A3}
  101265,                                 ! Barometric Pressure {Pa}
  6.7,                                    ! Wind Speed {m/s}
  60,                                     ! Wind Direction {deg}
  0,                                      ! Sky Clearness
  0,                                      ! Rain Indicator
  0,                                      ! Snow Indicator
  21,                                     ! Day of Month
  8,                                      ! Month
  SummerDesignDay,                        ! Day Type
  0,                                      ! Daylight Saving Time Indicator
  Enthalpy,                               ! Humidity Indicating Type
  ,                                       ! Humidity Indicating Day Schedule Name
  DefaultMultipliers,                     ! Dry-Bulb Temperature Range Modifier Type
  ,                                       ! Dry-Bulb Temperature Range Modifier Schedule Name
  ASHRAETau,                              ! Solar Model Indicator
  ,                                       ! Beam Solar Day Schedule Name
  ,                                       ! Diffuse Solar Day Schedule Name
  0.382,                                  ! ASHRAE Taub {dimensionless}
  2.521;                                  ! ASHRAE Taud {dimensionless}

OS:ComponentData,
  {a6616efa-fb42-4613-84ae-6c2254004e08}, ! Handle
  Component Data 1,                       ! Name
  {21a32e32-3db8-4714-8704-fe86fc6f16ed}, ! UUID
  {1f9531f5-180b-4a4f-bd09-acf10c5d1939}, ! Version UUID
  1366307088,                             ! Creation Timestamp
  1366307088,                             ! Version Timestamp
  {80dcc119-7034-43c8-9578-75daa4519d4d}; ! Name of Object 1

