
OS:Version,
  {b0e6d9b3-f2b4-4c12-b13a-3cf96fc562d8}, ! Handle
  0.9.3;                                  ! Version Identifier

OS:SizingPeriod:DesignDay,
  {fc4a3d3a-368e-4e71-a9f0-4a8fd5a26a14}, ! Handle
  Altus Afb Ann Clg 2% Condns Enth=>MDB,  ! Name
  32.8,                                   ! Maximum Dry-Bulb Temperature {C}
  13.4,                                   ! Daily Dry-Bulb Temperature Range {deltaC}
  75500,                                  ! Humidity Indicating Conditions at Maximum Dry-Bulb {BasedOnField A3}
  96449,                                  ! Barometric Pressure {Pa}
  4.8,                                    ! Wind Speed {m/s}
  160,                                    ! Wind Direction {deg}
  0,                                      ! Sky Clearness
  0,                                      ! Rain Indicator
  0,                                      ! Snow Indicator
  21,                                     ! Day of Month
  7,                                      ! Month
  SummerDesignDay,                        ! Day Type
  0,                                      ! Daylight Saving Time Indicator
  Enthalpy,                               ! Humidity Indicating Type
  ,                                       ! Humidity Indicating Day Schedule Name
  DefaultMultipliers,                     ! Dry-Bulb Temperature Range Modifier Type
  ,                                       ! Dry-Bulb Temperature Range Modifier Schedule Name
  ASHRAETau,                              ! Solar Model Indicator
  ,                                       ! Beam Solar Day Schedule Name
  ,                                       ! Diffuse Solar Day Schedule Name
  0.426,                                  ! ASHRAE Taub {dimensionless}
  2.183;                                  ! ASHRAE Taud {dimensionless}

OS:ComponentData,
  {25b3d07c-b5e0-4700-90d4-e9039aa8d9a7}, ! Handle
  Component Data 1,                       ! Name
  {f8ff27e0-7c99-49fe-971c-61e7dd229058}, ! UUID
  {3bd0296b-4a2a-4e2e-a80c-b9f99bdf7953}, ! Version UUID
  1366309880,                             ! Creation Timestamp
  1366309880,                             ! Version Timestamp
  {fc4a3d3a-368e-4e71-a9f0-4a8fd5a26a14}; ! Name of Object 1

