
OS:Version,
  {12cacf5c-6b04-4528-ae40-1501168ff8c1}, ! Handle
  0.9.3;                                  ! Version Identifier

OS:SizingPeriod:DesignDay,
  {6b15fff0-f2a2-44d7-9eaa-71089598e65e}, ! Handle
  Antigo Lang Awos Ann Clg 2% Condns WB=>MDB, ! Name
  25.2,                                   ! Maximum Dry-Bulb Temperature {C}
  12.1,                                   ! Daily Dry-Bulb Temperature Range {deltaC}
  22,                                     ! Humidity Indicating Conditions at Maximum Dry-Bulb {BasedOnField A3}
  95874,                                  ! Barometric Pressure {Pa}
  4.8,                                    ! Wind Speed {m/s}
  210,                                    ! Wind Direction {deg}
  0,                                      ! Sky Clearness
  0,                                      ! Rain Indicator
  0,                                      ! Snow Indicator
  21,                                     ! Day of Month
  7,                                      ! Month
  SummerDesignDay,                        ! Day Type
  0,                                      ! Daylight Saving Time Indicator
  Wetbulb,                                ! Humidity Indicating Type
  ,                                       ! Humidity Indicating Day Schedule Name
  DefaultMultipliers,                     ! Dry-Bulb Temperature Range Modifier Type
  ,                                       ! Dry-Bulb Temperature Range Modifier Schedule Name
  ASHRAETau,                              ! Solar Model Indicator
  ,                                       ! Beam Solar Day Schedule Name
  ,                                       ! Diffuse Solar Day Schedule Name
  0.403,                                  ! ASHRAE Taub {dimensionless}
  2.215;                                  ! ASHRAE Taud {dimensionless}

OS:ComponentData,
  {5e0d6554-8e8e-4d1b-a1d5-18c6940815d7}, ! Handle
  Component Data 1,                       ! Name
  {480e46b8-1b5a-4b8f-8e41-3accdd9c3745}, ! UUID
  {a2ea214d-fafe-43af-8c4a-642a8797a297}, ! Version UUID
  1366311480,                             ! Creation Timestamp
  1366311480,                             ! Version Timestamp
  {6b15fff0-f2a2-44d7-9eaa-71089598e65e}; ! Name of Object 1

