
OS:Version,
  {dad1df2f-a234-4137-a946-3518e39aecbe}, ! Handle
  0.9.3;                                  ! Version Identifier

OS:SizingPeriod:DesignDay,
  {050719b2-1b4e-47cd-84f1-6a566ab9fb2b}, ! Handle
  BURLINGTON Ann Clg .4% Condns DB=>MWB,  ! Name
  31.3,                                   ! Maximum Dry-Bulb Temperature {C}
  10.7,                                   ! Daily Dry-Bulb Temperature Range {deltaC}
  21.7,                                   ! Humidity Indicating Conditions at Maximum Dry-Bulb {BasedOnField A3}
  100082,                                 ! Barometric Pressure {Pa}
  4.5,                                    ! Wind Speed {m/s}
  170,                                    ! Wind Direction {deg}
  0,                                      ! Sky Clearness
  0,                                      ! Rain Indicator
  0,                                      ! Snow Indicator
  21,                                     ! Day of Month
  7,                                      ! Month
  SummerDesignDay,                        ! Day Type
  0,                                      ! Daylight Saving Time Indicator
  Wetbulb,                                ! Humidity Indicating Type
  ,                                       ! Humidity Indicating Day Schedule Name
  DefaultMultipliers,                     ! Dry-Bulb Temperature Range Modifier Type
  ,                                       ! Dry-Bulb Temperature Range Modifier Schedule Name
  ASHRAETau,                              ! Solar Model Indicator
  ,                                       ! Beam Solar Day Schedule Name
  ,                                       ! Diffuse Solar Day Schedule Name
  0.459,                                  ! ASHRAE Taub {dimensionless}
  2.002;                                  ! ASHRAE Taud {dimensionless}

OS:ComponentData,
  {fe957cca-4c81-491e-86ae-3686a69fa76a}, ! Handle
  Component Data 1,                       ! Name
  {714c0184-cf46-4a96-bb7a-e445d0930941}, ! UUID
  {969494dc-8809-4e1e-801f-4796833856a5}, ! Version UUID
  1366311234,                             ! Creation Timestamp
  1366311234,                             ! Version Timestamp
  {050719b2-1b4e-47cd-84f1-6a566ab9fb2b}; ! Name of Object 1

