
OS:Version,
  {2729fe6d-25fe-4dfd-b84b-73c1a67705e4}, ! Handle
  0.9.3;                                  ! Version Identifier

OS:SizingPeriod:DesignDay,
  {93d94cd1-3811-439a-9465-1beffc281704}, ! Handle
  King Salmon Ann Htg Wind 99% Condns WS=>MCDB, ! Name
  3.2,                                    ! Maximum Dry-Bulb Temperature {C}
  0,                                      ! Daily Dry-Bulb Temperature Range {deltaC}
  3.2,                                    ! Humidity Indicating Conditions at Maximum Dry-Bulb {BasedOnField A3}
  101145,                                 ! Barometric Pressure {Pa}
  14,                                     ! Wind Speed {m/s}
  10,                                     ! Wind Direction {deg}
  0,                                      ! Sky Clearness
  0,                                      ! Rain Indicator
  0,                                      ! Snow Indicator
  21,                                     ! Day of Month
  1,                                      ! Month
  WinterDesignDay,                        ! Day Type
  0,                                      ! Daylight Saving Time Indicator
  Wetbulb,                                ! Humidity Indicating Type
  ,                                       ! Humidity Indicating Day Schedule Name
  DefaultMultipliers,                     ! Dry-Bulb Temperature Range Modifier Type
  ,                                       ! Dry-Bulb Temperature Range Modifier Schedule Name
  ASHRAEClearSky;                         ! Solar Model Indicator

OS:ComponentData,
  {af260d11-ce2a-461b-b17f-cb8c0c95705f}, ! Handle
  Component Data 1,                       ! Name
  {66cb04a1-ffb0-4c71-bfa1-9f1c8266e87a}, ! UUID
  {81b630fb-8af7-486e-bd23-84cec9bbac43}, ! Version UUID
  1366305361,                             ! Creation Timestamp
  1366305361,                             ! Version Timestamp
  {93d94cd1-3811-439a-9465-1beffc281704}; ! Name of Object 1

