
OS:Version,
  {ff195982-b5b6-4e85-ad5a-726741f30854}, ! Handle
  0.9.3;                                  ! Version Identifier

OS:SizingPeriod:DesignDay,
  {9e595ee8-69d2-47c1-9e33-f9bd39915fc2}, ! Handle
  Greenwood Leflore Arpt Ann Clg .4% Condns Enth=>MDB, ! Name
  32.5,                                   ! Maximum Dry-Bulb Temperature {C}
  10.5,                                   ! Daily Dry-Bulb Temperature Range {deltaC}
  85500,                                  ! Humidity Indicating Conditions at Maximum Dry-Bulb {BasedOnField A3}
  100762,                                 ! Barometric Pressure {Pa}
  2.9,                                    ! Wind Speed {m/s}
  230,                                    ! Wind Direction {deg}
  0,                                      ! Sky Clearness
  0,                                      ! Rain Indicator
  0,                                      ! Snow Indicator
  21,                                     ! Day of Month
  7,                                      ! Month
  SummerDesignDay,                        ! Day Type
  0,                                      ! Daylight Saving Time Indicator
  Enthalpy,                               ! Humidity Indicating Type
  ,                                       ! Humidity Indicating Day Schedule Name
  DefaultMultipliers,                     ! Dry-Bulb Temperature Range Modifier Type
  ,                                       ! Dry-Bulb Temperature Range Modifier Schedule Name
  ASHRAETau,                              ! Solar Model Indicator
  ,                                       ! Beam Solar Day Schedule Name
  ,                                       ! Diffuse Solar Day Schedule Name
  0.551,                                  ! ASHRAE Taub {dimensionless}
  1.802;                                  ! ASHRAE Taud {dimensionless}

OS:ComponentData,
  {6c231ed2-c234-40b1-8770-5771620a1975}, ! Handle
  Component Data 1,                       ! Name
  {995fbb00-33e3-42c1-88c3-d2e5dc01152c}, ! UUID
  {225346e7-d393-4293-8e7b-eb5f23d7703f}, ! Version UUID
  1366308627,                             ! Creation Timestamp
  1366308627,                             ! Version Timestamp
  {9e595ee8-69d2-47c1-9e33-f9bd39915fc2}; ! Name of Object 1

