
OS:Version,
  {b6e2068b-7417-4ee5-8f56-803095cd640a}, ! Handle
  0.9.3;                                  ! Version Identifier

OS:SizingPeriod:DesignDay,
  {957d03ec-f4cd-471d-b1c9-72fa55feb45e}, ! Handle
  CHICAGO Ann Clg 2% Condns DB=>MWB,      ! Name
  30.1,                                   ! Maximum Dry-Bulb Temperature {C}
  10.5,                                   ! Daily Dry-Bulb Temperature Range {deltaC}
  22.1,                                   ! Humidity Indicating Conditions at Maximum Dry-Bulb {BasedOnField A3}
  99063,                                  ! Barometric Pressure {Pa}
  5.2,                                    ! Wind Speed {m/s}
  230,                                    ! Wind Direction {deg}
  0,                                      ! Sky Clearness
  0,                                      ! Rain Indicator
  0,                                      ! Snow Indicator
  21,                                     ! Day of Month
  7,                                      ! Month
  SummerDesignDay,                        ! Day Type
  0,                                      ! Daylight Saving Time Indicator
  Wetbulb,                                ! Humidity Indicating Type
  ,                                       ! Humidity Indicating Day Schedule Name
  DefaultMultipliers,                     ! Dry-Bulb Temperature Range Modifier Type
  ,                                       ! Dry-Bulb Temperature Range Modifier Schedule Name
  ASHRAETau,                              ! Solar Model Indicator
  ,                                       ! Beam Solar Day Schedule Name
  ,                                       ! Diffuse Solar Day Schedule Name
  0.455,                                  ! ASHRAE Taub {dimensionless}
  2.05;                                   ! ASHRAE Taud {dimensionless}

OS:ComponentData,
  {45a5c085-0f51-4cdc-8707-ad61d8a11430}, ! Handle
  Component Data 1,                       ! Name
  {7655b330-443b-414c-a402-de4c57b1e56d}, ! UUID
  {bf339eb2-e390-4403-98ca-8ca727429915}, ! Version UUID
  1366307347,                             ! Creation Timestamp
  1366307347,                             ! Version Timestamp
  {957d03ec-f4cd-471d-b1c9-72fa55feb45e}; ! Name of Object 1

