
OS:Version,
  {e3be5f01-ed4e-4a4a-9830-09a9293a70cf}, ! Handle
  0.9.3;                                  ! Version Identifier

OS:SizingPeriod:DesignDay,
  {67dd9a57-5175-4987-a25b-d83f2a9c5870}, ! Handle
  Austin Mueller Municipal Ap Ann Clg 1% Condns WB=>MDB, ! Name
  31.7,                                   ! Maximum Dry-Bulb Temperature {C}
  12.5,                                   ! Daily Dry-Bulb Temperature Range {deltaC}
  25.7,                                   ! Humidity Indicating Conditions at Maximum Dry-Bulb {BasedOnField A3}
  98792,                                  ! Barometric Pressure {Pa}
  3.7,                                    ! Wind Speed {m/s}
  190,                                    ! Wind Direction {deg}
  0,                                      ! Sky Clearness
  0,                                      ! Rain Indicator
  0,                                      ! Snow Indicator
  21,                                     ! Day of Month
  8,                                      ! Month
  SummerDesignDay,                        ! Day Type
  0,                                      ! Daylight Saving Time Indicator
  Wetbulb,                                ! Humidity Indicating Type
  ,                                       ! Humidity Indicating Day Schedule Name
  DefaultMultipliers,                     ! Dry-Bulb Temperature Range Modifier Type
  ,                                       ! Dry-Bulb Temperature Range Modifier Schedule Name
  ASHRAETau,                              ! Solar Model Indicator
  ,                                       ! Beam Solar Day Schedule Name
  ,                                       ! Diffuse Solar Day Schedule Name
  0.457,                                  ! ASHRAE Taub {dimensionless}
  2.114;                                  ! ASHRAE Taud {dimensionless}

OS:ComponentData,
  {adde4733-f31b-4384-9822-f53dbc5e4b7e}, ! Handle
  Component Data 1,                       ! Name
  {a85f1005-7ad7-4c5d-9d6f-fc3aa0151ffe}, ! UUID
  {ddedcbfe-9164-4af7-9a7a-06836e9778d1}, ! Version UUID
  1366310586,                             ! Creation Timestamp
  1366310586,                             ! Version Timestamp
  {67dd9a57-5175-4987-a25b-d83f2a9c5870}; ! Name of Object 1

