
OS:Version,
  {8787decd-bf06-40b8-86ee-5ecd798aef3f}, ! Handle
  0.9.3;                                  ! Version Identifier

OS:SizingPeriod:DesignDay,
  {2868731c-9292-42f1-bc43-e21b9a4fca67}, ! Handle
  Brainerd Wieland Ann Clg .4% Condns Enth=>MDB, ! Name
  29.1,                                   ! Maximum Dry-Bulb Temperature {C}
  11.7,                                   ! Daily Dry-Bulb Temperature Range {deltaC}
  74600,                                  ! Humidity Indicating Conditions at Maximum Dry-Bulb {BasedOnField A3}
  96912,                                  ! Barometric Pressure {Pa}
  5.2,                                    ! Wind Speed {m/s}
  200,                                    ! Wind Direction {deg}
  0,                                      ! Sky Clearness
  0,                                      ! Rain Indicator
  0,                                      ! Snow Indicator
  21,                                     ! Day of Month
  7,                                      ! Month
  SummerDesignDay,                        ! Day Type
  0,                                      ! Daylight Saving Time Indicator
  Enthalpy,                               ! Humidity Indicating Type
  ,                                       ! Humidity Indicating Day Schedule Name
  DefaultMultipliers,                     ! Dry-Bulb Temperature Range Modifier Type
  ,                                       ! Dry-Bulb Temperature Range Modifier Schedule Name
  ASHRAETau,                              ! Solar Model Indicator
  ,                                       ! Beam Solar Day Schedule Name
  ,                                       ! Diffuse Solar Day Schedule Name
  0.394,                                  ! ASHRAE Taub {dimensionless}
  2.249;                                  ! ASHRAE Taud {dimensionless}

OS:ComponentData,
  {9293e7ea-f5af-46da-a013-5372694bb3b7}, ! Handle
  Component Data 1,                       ! Name
  {75b37d3c-f930-463a-a508-44770750a169}, ! UUID
  {a3fa808f-9a8a-4384-9bb5-b7b972cff628}, ! Version UUID
  1366308172,                             ! Creation Timestamp
  1366308172,                             ! Version Timestamp
  {2868731c-9292-42f1-bc43-e21b9a4fca67}; ! Name of Object 1

