
OS:Version,
  {ec6bc460-e8aa-47e0-ada3-8389f2bb44b6}, ! Handle
  0.9.3;                                  ! Version Identifier

OS:SizingPeriod:DesignDay,
  {5b6565ec-cb58-43d9-867f-48a88e0b3f00}, ! Handle
  Bakersfield Meadows Field Ann Clg 2% Condns DB=>MWB, ! Name
  36.8,                                   ! Maximum Dry-Bulb Temperature {C}
  14.9,                                   ! Daily Dry-Bulb Temperature Range {deltaC}
  20.7,                                   ! Humidity Indicating Conditions at Maximum Dry-Bulb {BasedOnField A3}
  99548,                                  ! Barometric Pressure {Pa}
  5.3,                                    ! Wind Speed {m/s}
  300,                                    ! Wind Direction {deg}
  0,                                      ! Sky Clearness
  0,                                      ! Rain Indicator
  0,                                      ! Snow Indicator
  21,                                     ! Day of Month
  7,                                      ! Month
  SummerDesignDay,                        ! Day Type
  0,                                      ! Daylight Saving Time Indicator
  Wetbulb,                                ! Humidity Indicating Type
  ,                                       ! Humidity Indicating Day Schedule Name
  DefaultMultipliers,                     ! Dry-Bulb Temperature Range Modifier Type
  ,                                       ! Dry-Bulb Temperature Range Modifier Schedule Name
  ASHRAETau,                              ! Solar Model Indicator
  ,                                       ! Beam Solar Day Schedule Name
  ,                                       ! Diffuse Solar Day Schedule Name
  0.438,                                  ! ASHRAE Taub {dimensionless}
  2.106;                                  ! ASHRAE Taud {dimensionless}

OS:ComponentData,
  {5be31f42-34e0-4214-9c51-31aafafc2eee}, ! Handle
  Component Data 1,                       ! Name
  {4178d55e-3dad-4c68-94da-274fd0863cbb}, ! UUID
  {50ad8fb5-3ba1-4d1d-b784-b09f28133359}, ! Version UUID
  1366306365,                             ! Creation Timestamp
  1366306365,                             ! Version Timestamp
  {5b6565ec-cb58-43d9-867f-48a88e0b3f00}; ! Name of Object 1

