
OS:Version,
  {6a7c1033-007a-4741-8e64-1be4a2b4f964}, ! Handle
  0.9.3;                                  ! Version Identifier

OS:SizingPeriod:DesignDay,
  {14f488f6-001d-49c4-a4b4-8a1ca3a692af}, ! Handle
  BUFFALO Ann Clg 1% Condns Enth=>MDB,    ! Name
  26.9,                                   ! Maximum Dry-Bulb Temperature {C}
  9.3,                                    ! Daily Dry-Bulb Temperature Range {deltaC}
  68500,                                  ! Humidity Indicating Conditions at Maximum Dry-Bulb {BasedOnField A3}
  98769,                                  ! Barometric Pressure {Pa}
  5.7,                                    ! Wind Speed {m/s}
  240,                                    ! Wind Direction {deg}
  0,                                      ! Sky Clearness
  0,                                      ! Rain Indicator
  0,                                      ! Snow Indicator
  21,                                     ! Day of Month
  7,                                      ! Month
  SummerDesignDay,                        ! Day Type
  0,                                      ! Daylight Saving Time Indicator
  Enthalpy,                               ! Humidity Indicating Type
  ,                                       ! Humidity Indicating Day Schedule Name
  DefaultMultipliers,                     ! Dry-Bulb Temperature Range Modifier Type
  ,                                       ! Dry-Bulb Temperature Range Modifier Schedule Name
  ASHRAETau,                              ! Solar Model Indicator
  ,                                       ! Beam Solar Day Schedule Name
  ,                                       ! Diffuse Solar Day Schedule Name
  0.462,                                  ! ASHRAE Taub {dimensionless}
  2.001;                                  ! ASHRAE Taud {dimensionless}

