
OS:Version,
  {e7f7c143-8837-4ca8-ab2f-5562ad3d9c08}, ! Handle
  0.9.3;                                  ! Version Identifier

OS:SizingPeriod:DesignDay,
  {41ca4e9f-581e-4c7a-9684-fedba295928f}, ! Handle
  Aitkin Ndb Awos Ann Hum_n 99% Condns DP=>MCDB, ! Name
  -24.1,                                  ! Maximum Dry-Bulb Temperature {C}
  0,                                      ! Daily Dry-Bulb Temperature Range {deltaC}
  -30,                                    ! Humidity Indicating Conditions at Maximum Dry-Bulb {BasedOnField A3}
  96993,                                  ! Barometric Pressure {Pa}
  0.8,                                    ! Wind Speed {m/s}
  300,                                    ! Wind Direction {deg}
  0,                                      ! Sky Clearness
  0,                                      ! Rain Indicator
  0,                                      ! Snow Indicator
  21,                                     ! Day of Month
  1,                                      ! Month
  WinterDesignDay,                        ! Day Type
  0,                                      ! Daylight Saving Time Indicator
  Dewpoint,                               ! Humidity Indicating Type
  ,                                       ! Humidity Indicating Day Schedule Name
  DefaultMultipliers,                     ! Dry-Bulb Temperature Range Modifier Type
  ,                                       ! Dry-Bulb Temperature Range Modifier Schedule Name
  ASHRAEClearSky;                         ! Solar Model Indicator

OS:ComponentData,
  {21d19905-7281-4cb9-9f12-7f4ed660e609}, ! Handle
  Component Data 1,                       ! Name
  {e52cc8ec-c1c7-4e48-b629-5b0a19b1032b}, ! UUID
  {4aa5d297-2b5b-4ca5-bb96-c82c762b425a}, ! Version UUID
  1366308135,                             ! Creation Timestamp
  1366308135,                             ! Version Timestamp
  {41ca4e9f-581e-4c7a-9684-fedba295928f}; ! Name of Object 1

