
OS:Version,
  {61f3aa6b-cc86-4fc8-9086-0d15f111bdb1}, ! Handle
  0.9.3;                                  ! Version Identifier

OS:SizingPeriod:DesignDay,
  {13925b47-ccda-4a69-b615-f1e10f0fdaa7}, ! Handle
  Houghton Lake Roscommon Co Ar Ann Clg .4% Condns WB=>MDB, ! Name
  28.6,                                   ! Maximum Dry-Bulb Temperature {C}
  12.8,                                   ! Daily Dry-Bulb Temperature Range {deltaC}
  23.6,                                   ! Humidity Indicating Conditions at Maximum Dry-Bulb {BasedOnField A3}
  97179,                                  ! Barometric Pressure {Pa}
  4.2,                                    ! Wind Speed {m/s}
  240,                                    ! Wind Direction {deg}
  0,                                      ! Sky Clearness
  0,                                      ! Rain Indicator
  0,                                      ! Snow Indicator
  21,                                     ! Day of Month
  7,                                      ! Month
  SummerDesignDay,                        ! Day Type
  0,                                      ! Daylight Saving Time Indicator
  Wetbulb,                                ! Humidity Indicating Type
  ,                                       ! Humidity Indicating Day Schedule Name
  DefaultMultipliers,                     ! Dry-Bulb Temperature Range Modifier Type
  ,                                       ! Dry-Bulb Temperature Range Modifier Schedule Name
  ASHRAETau,                              ! Solar Model Indicator
  ,                                       ! Beam Solar Day Schedule Name
  ,                                       ! Diffuse Solar Day Schedule Name
  0.413,                                  ! ASHRAE Taub {dimensionless}
  2.189;                                  ! ASHRAE Taud {dimensionless}

OS:ComponentData,
  {234355c2-14bf-45d3-9409-05813a1346f1}, ! Handle
  Component Data 1,                       ! Name
  {19eb31b9-5230-4239-a729-49e380173f74}, ! UUID
  {94ff35e6-bfea-4a25-b7de-30b647c4c864}, ! Version UUID
  1366308026,                             ! Creation Timestamp
  1366308026,                             ! Version Timestamp
  {13925b47-ccda-4a69-b615-f1e10f0fdaa7}; ! Name of Object 1

