
OS:Version,
  {5f042ffa-8038-4040-a7cd-f92c075ea98a}, ! Handle
  0.9.3;                                  ! Version Identifier

OS:SizingPeriod:DesignDay,
  {6d3f3193-b0f9-4c6c-9b53-cafd805f4fe9}, ! Handle
  BARROW Ann Clg 2% Condns DB=>MWB,       ! Name
  9.9,                                    ! Maximum Dry-Bulb Temperature {C}
  6.3,                                    ! Daily Dry-Bulb Temperature Range {deltaC}
  8.3,                                    ! Humidity Indicating Conditions at Maximum Dry-Bulb {BasedOnField A3}
  101277,                                 ! Barometric Pressure {Pa}
  5.2,                                    ! Wind Speed {m/s}
  180,                                    ! Wind Direction {deg}
  0,                                      ! Sky Clearness
  0,                                      ! Rain Indicator
  0,                                      ! Snow Indicator
  21,                                     ! Day of Month
  7,                                      ! Month
  SummerDesignDay,                        ! Day Type
  0,                                      ! Daylight Saving Time Indicator
  Wetbulb,                                ! Humidity Indicating Type
  ,                                       ! Humidity Indicating Day Schedule Name
  DefaultMultipliers,                     ! Dry-Bulb Temperature Range Modifier Type
  ,                                       ! Dry-Bulb Temperature Range Modifier Schedule Name
  ASHRAETau,                              ! Solar Model Indicator
  ,                                       ! Beam Solar Day Schedule Name
  ,                                       ! Diffuse Solar Day Schedule Name
  0.344,                                  ! ASHRAE Taub {dimensionless}
  2.25;                                   ! ASHRAE Taud {dimensionless}

OS:ComponentData,
  {c963520b-644a-4a96-a08c-9b3cefef29a5}, ! Handle
  Component Data 1,                       ! Name
  {e39b4dac-14e6-40c6-b5c2-e5465170a39b}, ! UUID
  {d59735b2-bddd-40b9-9f80-df452d51d825}, ! Version UUID
  1366304741,                             ! Creation Timestamp
  1366304741,                             ! Version Timestamp
  {6d3f3193-b0f9-4c6c-9b53-cafd805f4fe9}; ! Name of Object 1

