
OS:Version,
  {0591b7a4-845a-443c-9ea7-bba4234f3fce}, ! Handle
  0.9.3;                                  ! Version Identifier

OS:SizingPeriod:DesignDay,
  {f366d874-5109-457b-8830-70f7902f80be}, ! Handle
  Columbus Port Columbus Intl A Ann Clg 2% Condns WB=>MDB, ! Name
  28,                                     ! Maximum Dry-Bulb Temperature {C}
  10.5,                                   ! Daily Dry-Bulb Temperature Range {deltaC}
  23.3,                                   ! Humidity Indicating Conditions at Maximum Dry-Bulb {BasedOnField A3}
  98393,                                  ! Barometric Pressure {Pa}
  4.3,                                    ! Wind Speed {m/s}
  240,                                    ! Wind Direction {deg}
  0,                                      ! Sky Clearness
  0,                                      ! Rain Indicator
  0,                                      ! Snow Indicator
  21,                                     ! Day of Month
  7,                                      ! Month
  SummerDesignDay,                        ! Day Type
  0,                                      ! Daylight Saving Time Indicator
  Wetbulb,                                ! Humidity Indicating Type
  ,                                       ! Humidity Indicating Day Schedule Name
  DefaultMultipliers,                     ! Dry-Bulb Temperature Range Modifier Type
  ,                                       ! Dry-Bulb Temperature Range Modifier Schedule Name
  ASHRAETau,                              ! Solar Model Indicator
  ,                                       ! Beam Solar Day Schedule Name
  ,                                       ! Diffuse Solar Day Schedule Name
  0.484,                                  ! ASHRAE Taub {dimensionless}
  1.943;                                  ! ASHRAE Taud {dimensionless}

OS:ComponentData,
  {ca4193b6-f4fe-48e7-b1e5-8675082ce1f8}, ! Handle
  Component Data 1,                       ! Name
  {84c8c3d7-0891-4a17-a598-14c02494ed7b}, ! UUID
  {c65faf7f-7bd4-40af-b2da-e1554203fc7d}, ! Version UUID
  1366309799,                             ! Creation Timestamp
  1366309799,                             ! Version Timestamp
  {f366d874-5109-457b-8830-70f7902f80be}; ! Name of Object 1

