
OS:Version,
  {1c019f11-d6d0-4e08-b7a6-3ec99ac4deca}, ! Handle
  0.9.3;                                  ! Version Identifier

OS:SizingPeriod:DesignDay,
  {034a17d4-fed2-4a18-92e7-813f0f78a06d}, ! Handle
  Joplin Municipal Ap Ann Clg 1% Condns DP=>MDB, ! Name
  29,                                     ! Maximum Dry-Bulb Temperature {C}
  10.8,                                   ! Daily Dry-Bulb Temperature Range {deltaC}
  23.4,                                   ! Humidity Indicating Conditions at Maximum Dry-Bulb {BasedOnField A3}
  97808,                                  ! Barometric Pressure {Pa}
  4.8,                                    ! Wind Speed {m/s}
  210,                                    ! Wind Direction {deg}
  0,                                      ! Sky Clearness
  0,                                      ! Rain Indicator
  0,                                      ! Snow Indicator
  21,                                     ! Day of Month
  7,                                      ! Month
  SummerDesignDay,                        ! Day Type
  0,                                      ! Daylight Saving Time Indicator
  Dewpoint,                               ! Humidity Indicating Type
  ,                                       ! Humidity Indicating Day Schedule Name
  DefaultMultipliers,                     ! Dry-Bulb Temperature Range Modifier Type
  ,                                       ! Dry-Bulb Temperature Range Modifier Schedule Name
  ASHRAETau,                              ! Solar Model Indicator
  ,                                       ! Beam Solar Day Schedule Name
  ,                                       ! Diffuse Solar Day Schedule Name
  0.446,                                  ! ASHRAE Taub {dimensionless}
  2.122;                                  ! ASHRAE Taud {dimensionless}

OS:ComponentData,
  {e9306705-c21a-4846-8562-76e41adca649}, ! Handle
  Component Data 1,                       ! Name
  {b9f8e6b6-85b9-428b-b3b1-32bb2c316a8b}, ! UUID
  {1a7e0498-27a4-446e-b78d-ff999fe8c019}, ! Version UUID
  1366308509,                             ! Creation Timestamp
  1366308509,                             ! Version Timestamp
  {034a17d4-fed2-4a18-92e7-813f0f78a06d}; ! Name of Object 1

