
OS:Version,
  {c35c9a31-05ea-494c-b87d-c7952aeaad8a}, ! Handle
  0.9.3;                                  ! Version Identifier

OS:SizingPeriod:DesignDay,
  {fea90bb1-c92a-4ce2-b71f-376070bc7695}, ! Handle
  AMARILLO Ann Clg 1% Condns WB=>MDB,     ! Name
  29.6,                                   ! Maximum Dry-Bulb Temperature {C}
  13.8,                                   ! Daily Dry-Bulb Temperature Range {deltaC}
  21.1,                                   ! Humidity Indicating Conditions at Maximum Dry-Bulb {BasedOnField A3}
  88811,                                  ! Barometric Pressure {Pa}
  6.9,                                    ! Wind Speed {m/s}
  210,                                    ! Wind Direction {deg}
  0,                                      ! Sky Clearness
  0,                                      ! Rain Indicator
  0,                                      ! Snow Indicator
  21,                                     ! Day of Month
  7,                                      ! Month
  SummerDesignDay,                        ! Day Type
  0,                                      ! Daylight Saving Time Indicator
  Wetbulb,                                ! Humidity Indicating Type
  ,                                       ! Humidity Indicating Day Schedule Name
  DefaultMultipliers,                     ! Dry-Bulb Temperature Range Modifier Type
  ,                                       ! Dry-Bulb Temperature Range Modifier Schedule Name
  ASHRAETau,                              ! Solar Model Indicator
  ,                                       ! Beam Solar Day Schedule Name
  ,                                       ! Diffuse Solar Day Schedule Name
  0.414,                                  ! ASHRAE Taub {dimensionless}
  2.136;                                  ! ASHRAE Taud {dimensionless}

OS:ComponentData,
  {7eccad57-7789-4c75-9cba-16f2af8152e6}, ! Handle
  Component Data 1,                       ! Name
  {e8ef9756-0115-4877-a5d8-5576e3f8ea7c}, ! UUID
  {74e59593-1e8a-427b-bfd3-c3f30e8638bf}, ! Version UUID
  1366310566,                             ! Creation Timestamp
  1366310566,                             ! Version Timestamp
  {fea90bb1-c92a-4ce2-b71f-376070bc7695}; ! Name of Object 1

