
OS:Version,
  {4a7db78c-973a-486e-b6a6-2553b0669956}, ! Handle
  0.9.3;                                  ! Version Identifier

OS:SizingPeriod:DesignDay,
  {5a3ba8dc-3056-43e5-a724-87dafc0cabde}, ! Handle
  Ainsworth Municipal Ann Hum_n 99% Condns DP=>MCDB, ! Name
  -17.9,                                  ! Maximum Dry-Bulb Temperature {C}
  0,                                      ! Daily Dry-Bulb Temperature Range {deltaC}
  -22.4,                                  ! Humidity Indicating Conditions at Maximum Dry-Bulb {BasedOnField A3}
  92199,                                  ! Barometric Pressure {Pa}
  4.2,                                    ! Wind Speed {m/s}
  320,                                    ! Wind Direction {deg}
  0,                                      ! Sky Clearness
  0,                                      ! Rain Indicator
  0,                                      ! Snow Indicator
  21,                                     ! Day of Month
  1,                                      ! Month
  WinterDesignDay,                        ! Day Type
  0,                                      ! Daylight Saving Time Indicator
  Dewpoint,                               ! Humidity Indicating Type
  ,                                       ! Humidity Indicating Day Schedule Name
  DefaultMultipliers,                     ! Dry-Bulb Temperature Range Modifier Type
  ,                                       ! Dry-Bulb Temperature Range Modifier Schedule Name
  ASHRAEClearSky;                         ! Solar Model Indicator

OS:ComponentData,
  {b303a1e0-99d3-4719-952a-7bf3d36cb8cf}, ! Handle
  Component Data 1,                       ! Name
  {1dc9379d-4abb-446c-a1af-7d2c91f057a5}, ! UUID
  {4da6b5a0-c3e3-495c-b902-cacaa8c09de7}, ! Version UUID
  1366309077,                             ! Creation Timestamp
  1366309077,                             ! Version Timestamp
  {5a3ba8dc-3056-43e5-a724-87dafc0cabde}; ! Name of Object 1

