
OS:Version,
  {f991e16e-0526-487f-9cda-2c263485d06b}, ! Handle
  0.9.3;                                  ! Version Identifier

OS:SizingPeriod:DesignDay,
  {d4810c98-c256-4070-a8e7-04b3f5306647}, ! Handle
  Lawrence Muni Ann Clg 1% Condns WB=>MDB, ! Name
  28.3,                                   ! Maximum Dry-Bulb Temperature {C}
  10.2,                                   ! Daily Dry-Bulb Temperature Range {deltaC}
  23.7,                                   ! Humidity Indicating Conditions at Maximum Dry-Bulb {BasedOnField A3}
  100774,                                 ! Barometric Pressure {Pa}
  4.5,                                    ! Wind Speed {m/s}
  250,                                    ! Wind Direction {deg}
  0,                                      ! Sky Clearness
  0,                                      ! Rain Indicator
  0,                                      ! Snow Indicator
  21,                                     ! Day of Month
  7,                                      ! Month
  SummerDesignDay,                        ! Day Type
  0,                                      ! Daylight Saving Time Indicator
  Wetbulb,                                ! Humidity Indicating Type
  ,                                       ! Humidity Indicating Day Schedule Name
  DefaultMultipliers,                     ! Dry-Bulb Temperature Range Modifier Type
  ,                                       ! Dry-Bulb Temperature Range Modifier Schedule Name
  ASHRAETau,                              ! Solar Model Indicator
  ,                                       ! Beam Solar Day Schedule Name
  ,                                       ! Diffuse Solar Day Schedule Name
  0.475,                                  ! ASHRAE Taub {dimensionless}
  1.982;                                  ! ASHRAE Taud {dimensionless}

OS:ComponentData,
  {ebbb74ed-32e5-4fad-8fbc-2173c9e499a0}, ! Handle
  Component Data 1,                       ! Name
  {0f52b9a9-814c-4643-9699-030c6b1cb759}, ! UUID
  {288eda0c-ca5f-4642-9701-f4c6179e446b}, ! Version UUID
  1366307798,                             ! Creation Timestamp
  1366307798,                             ! Version Timestamp
  {d4810c98-c256-4070-a8e7-04b3f5306647}; ! Name of Object 1

