
OS:Version,
  {5a16df0f-c144-4329-8de1-2e07ae2be0b7}, ! Handle
  0.9.3;                                  ! Version Identifier

OS:SizingPeriod:DesignDay,
  {963ff7fb-9334-469a-995e-33dde9ec4243}, ! Handle
  Helena Ann Htg Wind 99% Condns WS=>MCDB, ! Name
  3.3,                                    ! Maximum Dry-Bulb Temperature {C}
  0,                                      ! Daily Dry-Bulb Temperature Range {deltaC}
  3.3,                                    ! Humidity Indicating Conditions at Maximum Dry-Bulb {BasedOnField A3}
  87844,                                  ! Barometric Pressure {Pa}
  10.9,                                   ! Wind Speed {m/s}
  300,                                    ! Wind Direction {deg}
  0,                                      ! Sky Clearness
  0,                                      ! Rain Indicator
  0,                                      ! Snow Indicator
  21,                                     ! Day of Month
  12,                                     ! Month
  WinterDesignDay,                        ! Day Type
  0,                                      ! Daylight Saving Time Indicator
  Wetbulb,                                ! Humidity Indicating Type
  ,                                       ! Humidity Indicating Day Schedule Name
  DefaultMultipliers,                     ! Dry-Bulb Temperature Range Modifier Type
  ,                                       ! Dry-Bulb Temperature Range Modifier Schedule Name
  ASHRAEClearSky;                         ! Solar Model Indicator

OS:ComponentData,
  {e2fefb9f-1859-4bb7-9f9c-f747a4b89dca}, ! Handle
  Component Data 1,                       ! Name
  {16d18775-9bad-4f62-b5b2-f809305b8065}, ! UUID
  {05b613b8-d99e-4b6e-bbeb-17ff36fdc1d4}, ! Version UUID
  1366308792,                             ! Creation Timestamp
  1366308792,                             ! Version Timestamp
  {963ff7fb-9334-469a-995e-33dde9ec4243}; ! Name of Object 1

