
OS:Version,
  {36f1703d-f845-41d7-87ed-2ae314b0416d}, ! Handle
  0.9.3;                                  ! Version Identifier

OS:SizingPeriod:DesignDay,
  {beb642d4-f20a-47b5-adec-bd7006483ca1}, ! Handle
  Kansas City Downtown Ap Ann Clg 1% Condns DP=>MDB, ! Name
  29.7,                                   ! Maximum Dry-Bulb Temperature {C}
  9.5,                                    ! Daily Dry-Bulb Temperature Range {deltaC}
  23.9,                                   ! Humidity Indicating Conditions at Maximum Dry-Bulb {BasedOnField A3}
  98639,                                  ! Barometric Pressure {Pa}
  5.4,                                    ! Wind Speed {m/s}
  210,                                    ! Wind Direction {deg}
  0,                                      ! Sky Clearness
  0,                                      ! Rain Indicator
  0,                                      ! Snow Indicator
  21,                                     ! Day of Month
  7,                                      ! Month
  SummerDesignDay,                        ! Day Type
  0,                                      ! Daylight Saving Time Indicator
  Dewpoint,                               ! Humidity Indicating Type
  ,                                       ! Humidity Indicating Day Schedule Name
  DefaultMultipliers,                     ! Dry-Bulb Temperature Range Modifier Type
  ,                                       ! Dry-Bulb Temperature Range Modifier Schedule Name
  ASHRAETau,                              ! Solar Model Indicator
  ,                                       ! Beam Solar Day Schedule Name
  ,                                       ! Diffuse Solar Day Schedule Name
  0.445,                                  ! ASHRAE Taub {dimensionless}
  2.122;                                  ! ASHRAE Taud {dimensionless}

OS:ComponentData,
  {cac4d1df-3355-4e84-bc22-ff1121421e01}, ! Handle
  Component Data 1,                       ! Name
  {680cf7de-3479-4237-89ed-8ea36f18456b}, ! UUID
  {f695aef0-c73f-4220-a42e-f02a9202b553}, ! Version UUID
  1366308527,                             ! Creation Timestamp
  1366308527,                             ! Version Timestamp
  {beb642d4-f20a-47b5-adec-bd7006483ca1}; ! Name of Object 1

