
OS:Version,
  {4ba19627-7d7f-4989-ae61-8c25a00a42ae}, ! Handle
  0.9.3;                                  ! Version Identifier

OS:SizingPeriod:DesignDay,
  {0983c692-fa01-4f6f-b47e-c69b66bbf121}, ! Handle
  KANSAS_CITY Ann Clg 1% Condns DP=>MDB,  ! Name
  29.3,                                   ! Maximum Dry-Bulb Temperature {C}
  10.5,                                   ! Daily Dry-Bulb Temperature Range {deltaC}
  23.8,                                   ! Humidity Indicating Conditions at Maximum Dry-Bulb {BasedOnField A3}
  97598,                                  ! Barometric Pressure {Pa}
  5.7,                                    ! Wind Speed {m/s}
  180,                                    ! Wind Direction {deg}
  0,                                      ! Sky Clearness
  0,                                      ! Rain Indicator
  0,                                      ! Snow Indicator
  21,                                     ! Day of Month
  7,                                      ! Month
  SummerDesignDay,                        ! Day Type
  0,                                      ! Daylight Saving Time Indicator
  Dewpoint,                               ! Humidity Indicating Type
  ,                                       ! Humidity Indicating Day Schedule Name
  DefaultMultipliers,                     ! Dry-Bulb Temperature Range Modifier Type
  ,                                       ! Dry-Bulb Temperature Range Modifier Schedule Name
  ASHRAETau,                              ! Solar Model Indicator
  ,                                       ! Beam Solar Day Schedule Name
  ,                                       ! Diffuse Solar Day Schedule Name
  0.438,                                  ! ASHRAE Taub {dimensionless}
  2.146;                                  ! ASHRAE Taud {dimensionless}

OS:ComponentData,
  {656b598a-324b-4054-b57c-af264029f193}, ! Handle
  Component Data 1,                       ! Name
  {15e6e505-318d-45d1-97c8-fbfff52d4e51}, ! UUID
  {41b459b5-b504-417d-a437-eb53ae48acd0}, ! Version UUID
  1366308521,                             ! Creation Timestamp
  1366308521,                             ! Version Timestamp
  {0983c692-fa01-4f6f-b47e-c69b66bbf121}; ! Name of Object 1

