
OS:Version,
  {152f38b5-6e1e-4a01-8482-875e2cb3341e}, ! Handle
  0.9.3;                                  ! Version Identifier

OS:SizingPeriod:DesignDay,
  {c69a7e28-9f6f-4ce4-b134-dc574f30009e}, ! Handle
  Lemoore Reeves Nas Ann Clg 1% Condns DB=>MWB, ! Name
  38,                                     ! Maximum Dry-Bulb Temperature {C}
  18.6,                                   ! Daily Dry-Bulb Temperature Range {deltaC}
  21.8,                                   ! Humidity Indicating Conditions at Maximum Dry-Bulb {BasedOnField A3}
  100451,                                 ! Barometric Pressure {Pa}
  2.8,                                    ! Wind Speed {m/s}
  0,                                      ! Wind Direction {deg}
  0,                                      ! Sky Clearness
  0,                                      ! Rain Indicator
  0,                                      ! Snow Indicator
  21,                                     ! Day of Month
  7,                                      ! Month
  SummerDesignDay,                        ! Day Type
  0,                                      ! Daylight Saving Time Indicator
  Wetbulb,                                ! Humidity Indicating Type
  ,                                       ! Humidity Indicating Day Schedule Name
  DefaultMultipliers,                     ! Dry-Bulb Temperature Range Modifier Type
  ,                                       ! Dry-Bulb Temperature Range Modifier Schedule Name
  ASHRAETau,                              ! Solar Model Indicator
  ,                                       ! Beam Solar Day Schedule Name
  ,                                       ! Diffuse Solar Day Schedule Name
  0.413,                                  ! ASHRAE Taub {dimensionless}
  2.187;                                  ! ASHRAE Taud {dimensionless}

OS:ComponentData,
  {b8f5285a-ec42-42bb-86ce-674e8562e64d}, ! Handle
  Component Data 1,                       ! Name
  {a8b64506-bb45-4629-9c1d-4b05d8d788c8}, ! UUID
  {05b345a1-33b1-4be9-aa06-5f88d3a943bf}, ! Version UUID
  1366306460,                             ! Creation Timestamp
  1366306460,                             ! Version Timestamp
  {c69a7e28-9f6f-4ce4-b134-dc574f30009e}; ! Name of Object 1

