
OS:Version,
  {fdb349b4-b84c-4e42-bbdc-4f0046c5f353}, ! Handle
  0.9.3;                                  ! Version Identifier

OS:SizingPeriod:DesignDay,
  {38a4fa7c-fe8c-420a-9511-f6c3a1087f18}, ! Handle
  Austin Mueller Municipal Ap Ann Htg 99% Condns DB, ! Name
  -1.3,                                   ! Maximum Dry-Bulb Temperature {C}
  0,                                      ! Daily Dry-Bulb Temperature Range {deltaC}
  -1.3,                                   ! Humidity Indicating Conditions at Maximum Dry-Bulb {BasedOnField A3}
  98792,                                  ! Barometric Pressure {Pa}
  3.2,                                    ! Wind Speed {m/s}
  10,                                     ! Wind Direction {deg}
  0,                                      ! Sky Clearness
  0,                                      ! Rain Indicator
  0,                                      ! Snow Indicator
  21,                                     ! Day of Month
  1,                                      ! Month
  WinterDesignDay,                        ! Day Type
  0,                                      ! Daylight Saving Time Indicator
  Wetbulb,                                ! Humidity Indicating Type
  ,                                       ! Humidity Indicating Day Schedule Name
  DefaultMultipliers,                     ! Dry-Bulb Temperature Range Modifier Type
  ,                                       ! Dry-Bulb Temperature Range Modifier Schedule Name
  ASHRAEClearSky;                         ! Solar Model Indicator

OS:ComponentData,
  {f0552b55-06cd-4387-ba90-a2bcd21a0c88}, ! Handle
  Component Data 1,                       ! Name
  {4c9d63d4-073a-46c2-b9e6-45d71049120e}, ! UUID
  {296b1632-ee89-47bd-ac8c-d7de975e5e94}, ! Version UUID
  1366310585,                             ! Creation Timestamp
  1366310585,                             ! Version Timestamp
  {38a4fa7c-fe8c-420a-9511-f6c3a1087f18}; ! Name of Object 1

