
OS:Version,
  {88e966e2-fda9-4928-8847-22a5ddb0f415}, ! Handle
  0.9.3;                                  ! Version Identifier

OS:SizingPeriod:DesignDay,
  {1b1d909d-8821-4356-a6ae-d8236f5bc0cb}, ! Handle
  Boone Muni Ann Htg Wind 99% Condns WS=>MCDB, ! Name
  -6,                                     ! Maximum Dry-Bulb Temperature {C}
  0,                                      ! Daily Dry-Bulb Temperature Range {deltaC}
  -6,                                     ! Humidity Indicating Conditions at Maximum Dry-Bulb {BasedOnField A3}
  97144,                                  ! Barometric Pressure {Pa}
  12.4,                                   ! Wind Speed {m/s}
  340,                                    ! Wind Direction {deg}
  0,                                      ! Sky Clearness
  0,                                      ! Rain Indicator
  0,                                      ! Snow Indicator
  21,                                     ! Day of Month
  1,                                      ! Month
  WinterDesignDay,                        ! Day Type
  0,                                      ! Daylight Saving Time Indicator
  Wetbulb,                                ! Humidity Indicating Type
  ,                                       ! Humidity Indicating Day Schedule Name
  DefaultMultipliers,                     ! Dry-Bulb Temperature Range Modifier Type
  ,                                       ! Dry-Bulb Temperature Range Modifier Schedule Name
  ASHRAEClearSky;                         ! Solar Model Indicator

OS:ComponentData,
  {8165f790-11e9-458b-83b0-0196888f0207}, ! Handle
  Component Data 1,                       ! Name
  {db8d9694-821e-4858-8f47-d8756f6bf108}, ! UUID
  {492a38b1-ccc7-4892-bb86-ba9d5f76e486}, ! Version UUID
  1366307136,                             ! Creation Timestamp
  1366307136,                             ! Version Timestamp
  {1b1d909d-8821-4356-a6ae-d8236f5bc0cb}; ! Name of Object 1

