
OS:Version,
  {bfa96b50-5a1b-4524-8917-efc831a81193}, ! Handle
  0.9.3;                                  ! Version Identifier

OS:SizingPeriod:DesignDay,
  {99c99446-5429-4ba4-b90a-b2b6c0d3ddfe}, ! Handle
  Aberdeen Regional Arpt Ann Clg 1% Condns Enth=>MDB, ! Name
  29.5,                                   ! Maximum Dry-Bulb Temperature {C}
  12.6,                                   ! Daily Dry-Bulb Temperature Range {deltaC}
  72800,                                  ! Humidity Indicating Conditions at Maximum Dry-Bulb {BasedOnField A3}
  96634,                                  ! Barometric Pressure {Pa}
  6,                                      ! Wind Speed {m/s}
  180,                                    ! Wind Direction {deg}
  0,                                      ! Sky Clearness
  0,                                      ! Rain Indicator
  0,                                      ! Snow Indicator
  21,                                     ! Day of Month
  7,                                      ! Month
  SummerDesignDay,                        ! Day Type
  0,                                      ! Daylight Saving Time Indicator
  Enthalpy,                               ! Humidity Indicating Type
  ,                                       ! Humidity Indicating Day Schedule Name
  DefaultMultipliers,                     ! Dry-Bulb Temperature Range Modifier Type
  ,                                       ! Dry-Bulb Temperature Range Modifier Schedule Name
  ASHRAETau,                              ! Solar Model Indicator
  ,                                       ! Beam Solar Day Schedule Name
  ,                                       ! Diffuse Solar Day Schedule Name
  0.392,                                  ! ASHRAE Taub {dimensionless}
  2.277;                                  ! ASHRAE Taud {dimensionless}

OS:ComponentData,
  {920f8e8b-b321-4653-a41d-cb527bd2a911}, ! Handle
  Component Data 1,                       ! Name
  {35d251c9-e4f3-46f2-b01f-ba7d9237b3c4}, ! UUID
  {233986fa-c15c-4e5a-8ee3-a6fe0a09408a}, ! Version UUID
  1366310386,                             ! Creation Timestamp
  1366310386,                             ! Version Timestamp
  {99c99446-5429-4ba4-b90a-b2b6c0d3ddfe}; ! Name of Object 1

