
OS:Version,
  {8ac29ea6-6e06-4713-bf61-d288f11fa0be}, ! Handle
  0.9.3;                                  ! Version Identifier

OS:SizingPeriod:DesignDay,
  {ca172b01-640e-4e04-a7f0-bed27499d0e2}, ! Handle
  Fairbanks Intl Arpt Ann Htg Wind 99% Condns WS=>MCDB, ! Name
  -13.9,                                  ! Maximum Dry-Bulb Temperature {C}
  0,                                      ! Daily Dry-Bulb Temperature Range {deltaC}
  -13.9,                                  ! Humidity Indicating Conditions at Maximum Dry-Bulb {BasedOnField A3}
  99737,                                  ! Barometric Pressure {Pa}
  7.5,                                    ! Wind Speed {m/s}
  20,                                     ! Wind Direction {deg}
  0,                                      ! Sky Clearness
  0,                                      ! Rain Indicator
  0,                                      ! Snow Indicator
  21,                                     ! Day of Month
  1,                                      ! Month
  WinterDesignDay,                        ! Day Type
  0,                                      ! Daylight Saving Time Indicator
  Wetbulb,                                ! Humidity Indicating Type
  ,                                       ! Humidity Indicating Day Schedule Name
  DefaultMultipliers,                     ! Dry-Bulb Temperature Range Modifier Type
  ,                                       ! Dry-Bulb Temperature Range Modifier Schedule Name
  ASHRAEClearSky;                         ! Solar Model Indicator

OS:ComponentData,
  {66674448-6e11-4c12-b7d8-755f15545b54}, ! Handle
  Component Data 1,                       ! Name
  {b686b0fb-d58e-45f9-aee7-648703338407}, ! UUID
  {29fb5aac-e054-4a5a-825b-a79f94761080}, ! Version UUID
  1366305261,                             ! Creation Timestamp
  1366305261,                             ! Version Timestamp
  {ca172b01-640e-4e04-a7f0-bed27499d0e2}; ! Name of Object 1

