
OS:Version,
  {6408baeb-833a-49b4-bf89-f87df35e7768}, ! Handle
  0.9.3;                                  ! Version Identifier

OS:SizingPeriod:DesignDay,
  {c1b2a201-18db-4b91-b0bd-a67331afd2a4}, ! Handle
  Covington/Cincinnati O Ann Clg 1% Condns WB=>MDB, ! Name
  29.5,                                   ! Maximum Dry-Bulb Temperature {C}
  10.3,                                   ! Daily Dry-Bulb Temperature Range {deltaC}
  24.4,                                   ! Humidity Indicating Conditions at Maximum Dry-Bulb {BasedOnField A3}
  98158,                                  ! Barometric Pressure {Pa}
  4.3,                                    ! Wind Speed {m/s}
  230,                                    ! Wind Direction {deg}
  0,                                      ! Sky Clearness
  0,                                      ! Rain Indicator
  0,                                      ! Snow Indicator
  21,                                     ! Day of Month
  7,                                      ! Month
  SummerDesignDay,                        ! Day Type
  0,                                      ! Daylight Saving Time Indicator
  Wetbulb,                                ! Humidity Indicating Type
  ,                                       ! Humidity Indicating Day Schedule Name
  DefaultMultipliers,                     ! Dry-Bulb Temperature Range Modifier Type
  ,                                       ! Dry-Bulb Temperature Range Modifier Schedule Name
  ASHRAETau,                              ! Solar Model Indicator
  ,                                       ! Beam Solar Day Schedule Name
  ,                                       ! Diffuse Solar Day Schedule Name
  0.493,                                  ! ASHRAE Taub {dimensionless}
  1.911;                                  ! ASHRAE Taud {dimensionless}

OS:ComponentData,
  {9d74014d-df14-4e0b-bd28-69f0979915fe}, ! Handle
  Component Data 1,                       ! Name
  {0ef8d3b8-6e81-46d0-9168-029d8e6c8eb5}, ! UUID
  {6abcc6f7-9b94-4540-acd7-d87ddf2008a5}, ! Version UUID
  1366307618,                             ! Creation Timestamp
  1366307618,                             ! Version Timestamp
  {c1b2a201-18db-4b91-b0bd-a67331afd2a4}; ! Name of Object 1

