
OS:Version,
  {7e945535-3507-4d8e-ac2e-124c1858af1e}, ! Handle
  0.9.3;                                  ! Version Identifier

OS:SizingPeriod:DesignDay,
  {1efb1d80-893d-4e34-bc73-8ab82f137843}, ! Handle
  Allentown Lehigh Valley Intl Ann Htg 99.6% Condns DB, ! Name
  -13.9,                                  ! Maximum Dry-Bulb Temperature {C}
  0,                                      ! Daily Dry-Bulb Temperature Range {deltaC}
  -13.9,                                  ! Humidity Indicating Conditions at Maximum Dry-Bulb {BasedOnField A3}
  99904,                                  ! Barometric Pressure {Pa}
  4,                                      ! Wind Speed {m/s}
  330,                                    ! Wind Direction {deg}
  0,                                      ! Sky Clearness
  0,                                      ! Rain Indicator
  0,                                      ! Snow Indicator
  21,                                     ! Day of Month
  1,                                      ! Month
  WinterDesignDay,                        ! Day Type
  0,                                      ! Daylight Saving Time Indicator
  Wetbulb,                                ! Humidity Indicating Type
  ,                                       ! Humidity Indicating Day Schedule Name
  DefaultMultipliers,                     ! Dry-Bulb Temperature Range Modifier Type
  ,                                       ! Dry-Bulb Temperature Range Modifier Schedule Name
  ASHRAEClearSky;                         ! Solar Model Indicator

OS:ComponentData,
  {de496137-568c-4ce0-a46b-47e174ec9cd6}, ! Handle
  Component Data 1,                       ! Name
  {e54b1b7a-d407-4645-b835-28582c68adef}, ! UUID
  {5f01d126-eba2-4c6c-9680-d39c54f47cf3}, ! Version UUID
  1366310130,                             ! Creation Timestamp
  1366310130,                             ! Version Timestamp
  {1efb1d80-893d-4e34-bc73-8ab82f137843}; ! Name of Object 1

