
OS:Version,
  {5751df47-a77a-4e4c-9e60-823ed4ea2267}, ! Handle
  0.9.3;                                  ! Version Identifier

OS:SizingPeriod:DesignDay,
  {5eefcb47-81c7-4ced-860a-90a35cdb9d4d}, ! Handle
  BIG_DELTA Ann Hum_n 99.6% Condns DP=>MCDB, ! Name
  -36.2,                                  ! Maximum Dry-Bulb Temperature {C}
  0,                                      ! Daily Dry-Bulb Temperature Range {deltaC}
  -43,                                    ! Humidity Indicating Conditions at Maximum Dry-Bulb {BasedOnField A3}
  96750,                                  ! Barometric Pressure {Pa}
  1,                                      ! Wind Speed {m/s}
  180,                                    ! Wind Direction {deg}
  0,                                      ! Sky Clearness
  0,                                      ! Rain Indicator
  0,                                      ! Snow Indicator
  21,                                     ! Day of Month
  1,                                      ! Month
  WinterDesignDay,                        ! Day Type
  0,                                      ! Daylight Saving Time Indicator
  Dewpoint,                               ! Humidity Indicating Type
  ,                                       ! Humidity Indicating Day Schedule Name
  DefaultMultipliers,                     ! Dry-Bulb Temperature Range Modifier Type
  ,                                       ! Dry-Bulb Temperature Range Modifier Schedule Name
  ASHRAEClearSky;                         ! Solar Model Indicator

OS:ComponentData,
  {55c25e30-c6af-487c-98db-1cee556668f2}, ! Handle
  Component Data 1,                       ! Name
  {93eea042-81d8-467e-8d9c-603ec512df1d}, ! UUID
  {560a4f1e-3ef7-43eb-9bd1-c5a906f47687}, ! Version UUID
  1366304783,                             ! Creation Timestamp
  1366304783,                             ! Version Timestamp
  {5eefcb47-81c7-4ced-860a-90a35cdb9d4d}; ! Name of Object 1

