
OS:Version,
  {3b4b46ab-2c74-4254-8a4c-74f4166f1710}, ! Handle
  0.9.3;                                  ! Version Identifier

OS:SizingPeriod:DesignDay,
  {7e02eb98-82b6-4e4c-af42-b3040b0631bc}, ! Handle
  Indianapolis Intl Ap Ann Clg 1% Condns DP=>MDB, ! Name
  27.8,                                   ! Maximum Dry-Bulb Temperature {C}
  10.2,                                   ! Daily Dry-Bulb Temperature Range {deltaC}
  23.4,                                   ! Humidity Indicating Conditions at Maximum Dry-Bulb {BasedOnField A3}
  98463,                                  ! Barometric Pressure {Pa}
  4.8,                                    ! Wind Speed {m/s}
  220,                                    ! Wind Direction {deg}
  0,                                      ! Sky Clearness
  0,                                      ! Rain Indicator
  0,                                      ! Snow Indicator
  21,                                     ! Day of Month
  7,                                      ! Month
  SummerDesignDay,                        ! Day Type
  0,                                      ! Daylight Saving Time Indicator
  Dewpoint,                               ! Humidity Indicating Type
  ,                                       ! Humidity Indicating Day Schedule Name
  DefaultMultipliers,                     ! Dry-Bulb Temperature Range Modifier Type
  ,                                       ! Dry-Bulb Temperature Range Modifier Schedule Name
  ASHRAETau,                              ! Solar Model Indicator
  ,                                       ! Beam Solar Day Schedule Name
  ,                                       ! Diffuse Solar Day Schedule Name
  0.48,                                   ! ASHRAE Taub {dimensionless}
  1.954;                                  ! ASHRAE Taud {dimensionless}

OS:ComponentData,
  {47e9fcbc-8906-4d18-bf77-2dbcc2c65047}, ! Handle
  Component Data 1,                       ! Name
  {d87433d9-5e7e-43b5-b2d6-2aa23bd2f8bd}, ! UUID
  {1cbcf80d-b834-447e-9ce6-dfce9f4818a9}, ! Version UUID
  1366307468,                             ! Creation Timestamp
  1366307468,                             ! Version Timestamp
  {7e02eb98-82b6-4e4c-af42-b3040b0631bc}; ! Name of Object 1

