
OS:Version,
  {56704b62-54dc-47e1-84ec-1af961746073}, ! Handle
  0.9.3;                                  ! Version Identifier

OS:SizingPeriod:DesignDay,
  {826fe2c4-4081-4f8d-9ffc-7b208da32441}, ! Handle
  Alexandria Esler Regional Ap Ann Hum_n 99% Condns DP=>MCDB, ! Name
  2.6,                                    ! Maximum Dry-Bulb Temperature {C}
  0,                                      ! Daily Dry-Bulb Temperature Range {deltaC}
  -6.8,                                   ! Humidity Indicating Conditions at Maximum Dry-Bulb {BasedOnField A3}
  100917,                                 ! Barometric Pressure {Pa}
  0.9,                                    ! Wind Speed {m/s}
  40,                                     ! Wind Direction {deg}
  0,                                      ! Sky Clearness
  0,                                      ! Rain Indicator
  0,                                      ! Snow Indicator
  21,                                     ! Day of Month
  12,                                     ! Month
  WinterDesignDay,                        ! Day Type
  0,                                      ! Daylight Saving Time Indicator
  Dewpoint,                               ! Humidity Indicating Type
  ,                                       ! Humidity Indicating Day Schedule Name
  DefaultMultipliers,                     ! Dry-Bulb Temperature Range Modifier Type
  ,                                       ! Dry-Bulb Temperature Range Modifier Schedule Name
  ASHRAEClearSky;                         ! Solar Model Indicator

OS:ComponentData,
  {0919fffb-945f-4f51-9831-cc4a2417494b}, ! Handle
  Component Data 1,                       ! Name
  {9b82704f-c03b-4ef9-9a0e-9810e4b55e4a}, ! UUID
  {f06fa42f-226a-463c-b0a8-eef8119f5bd0}, ! Version UUID
  1366307695,                             ! Creation Timestamp
  1366307695,                             ! Version Timestamp
  {826fe2c4-4081-4f8d-9ffc-7b208da32441}; ! Name of Object 1

