
OS:Version,
  {b7056afa-c0ca-4a7b-ad49-2ae925932cc0}, ! Handle
  0.9.3;                                  ! Version Identifier

OS:SizingPeriod:DesignDay,
  {44b05164-6a9c-45df-84cc-795839c74fce}, ! Handle
  Hilo Ann Htg 99% Condns DB,             ! Name
  17.1,                                   ! Maximum Dry-Bulb Temperature {C}
  0,                                      ! Daily Dry-Bulb Temperature Range {deltaC}
  17.1,                                   ! Humidity Indicating Conditions at Maximum Dry-Bulb {BasedOnField A3}
  101193,                                 ! Barometric Pressure {Pa}
  2.8,                                    ! Wind Speed {m/s}
  220,                                    ! Wind Direction {deg}
  0,                                      ! Sky Clearness
  0,                                      ! Rain Indicator
  0,                                      ! Snow Indicator
  21,                                     ! Day of Month
  2,                                      ! Month
  WinterDesignDay,                        ! Day Type
  0,                                      ! Daylight Saving Time Indicator
  Wetbulb,                                ! Humidity Indicating Type
  ,                                       ! Humidity Indicating Day Schedule Name
  DefaultMultipliers,                     ! Dry-Bulb Temperature Range Modifier Type
  ,                                       ! Dry-Bulb Temperature Range Modifier Schedule Name
  ASHRAEClearSky;                         ! Solar Model Indicator

OS:ComponentData,
  {00627095-0031-473b-9978-8218494ffd7e}, ! Handle
  Component Data 1,                       ! Name
  {aac9c73d-8c39-482a-b1a1-31b6352b09c5}, ! UUID
  {bf37a516-b69b-453b-b810-9f63c8adad4d}, ! Version UUID
  1366307079,                             ! Creation Timestamp
  1366307079,                             ! Version Timestamp
  {44b05164-6a9c-45df-84cc-795839c74fce}; ! Name of Object 1

