
OS:Version,
  {4708698f-9294-4151-9139-9e3a5ea3a0d5}, ! Handle
  0.9.3;                                  ! Version Identifier

OS:SizingPeriod:DesignDay,
  {0c2ba076-e35a-46c9-8a23-df8a4d4281c4}, ! Handle
  Cincinnati Municipal Ap Lunki Ann Htg Wind 99% Condns WS=>MCDB, ! Name
  2,                                      ! Maximum Dry-Bulb Temperature {C}
  0,                                      ! Daily Dry-Bulb Temperature Range {deltaC}
  2,                                      ! Humidity Indicating Conditions at Maximum Dry-Bulb {BasedOnField A3}
  99548,                                  ! Barometric Pressure {Pa}
  9.4,                                    ! Wind Speed {m/s}
  240,                                    ! Wind Direction {deg}
  0,                                      ! Sky Clearness
  0,                                      ! Rain Indicator
  0,                                      ! Snow Indicator
  21,                                     ! Day of Month
  1,                                      ! Month
  WinterDesignDay,                        ! Day Type
  0,                                      ! Daylight Saving Time Indicator
  Wetbulb,                                ! Humidity Indicating Type
  ,                                       ! Humidity Indicating Day Schedule Name
  DefaultMultipliers,                     ! Dry-Bulb Temperature Range Modifier Type
  ,                                       ! Dry-Bulb Temperature Range Modifier Schedule Name
  ASHRAEClearSky;                         ! Solar Model Indicator

OS:ComponentData,
  {25db6b07-cd6d-43a3-ab08-af1924abac02}, ! Handle
  Component Data 1,                       ! Name
  {5eea8f6e-f6d3-4d8f-8ced-dadb5fa1a9a7}, ! UUID
  {ec3306c3-de6b-48df-91d2-8ad33ea121cc}, ! Version UUID
  1366309774,                             ! Creation Timestamp
  1366309774,                             ! Version Timestamp
  {0c2ba076-e35a-46c9-8a23-df8a4d4281c4}; ! Name of Object 1

