
OS:Version,
  {d86839fb-f6e4-4079-bacc-2cd30b0e64c2}, ! Handle
  0.9.3;                                  ! Version Identifier

OS:SizingPeriod:DesignDay,
  {d7e6faa6-d763-4dfb-999a-26433dfffe46}, ! Handle
  Johnstown Cambria County Ap Ann Clg 2% Condns WB=>MDB, ! Name
  24.8,                                   ! Maximum Dry-Bulb Temperature {C}
  9.1,                                    ! Daily Dry-Bulb Temperature Range {deltaC}
  20.9,                                   ! Humidity Indicating Conditions at Maximum Dry-Bulb {BasedOnField A3}
  93250,                                  ! Barometric Pressure {Pa}
  4.3,                                    ! Wind Speed {m/s}
  290,                                    ! Wind Direction {deg}
  0,                                      ! Sky Clearness
  0,                                      ! Rain Indicator
  0,                                      ! Snow Indicator
  21,                                     ! Day of Month
  7,                                      ! Month
  SummerDesignDay,                        ! Day Type
  0,                                      ! Daylight Saving Time Indicator
  Wetbulb,                                ! Humidity Indicating Type
  ,                                       ! Humidity Indicating Day Schedule Name
  DefaultMultipliers,                     ! Dry-Bulb Temperature Range Modifier Type
  ,                                       ! Dry-Bulb Temperature Range Modifier Schedule Name
  ASHRAETau,                              ! Solar Model Indicator
  ,                                       ! Beam Solar Day Schedule Name
  ,                                       ! Diffuse Solar Day Schedule Name
  0.46,                                   ! ASHRAE Taub {dimensionless}
  1.96;                                   ! ASHRAE Taud {dimensionless}

OS:ComponentData,
  {80fee45c-8c48-4af8-bf48-899b4e131e91}, ! Handle
  Component Data 1,                       ! Name
  {94268e5f-d9f5-49d0-bbbc-bd4fd7829eea}, ! UUID
  {5cf75141-2915-4ce9-9475-bd2cad73a52a}, ! Version UUID
  1366310202,                             ! Creation Timestamp
  1366310202,                             ! Version Timestamp
  {d7e6faa6-d763-4dfb-999a-26433dfffe46}; ! Name of Object 1

