
OS:Version,
  {69f7108c-5ed7-41d8-9152-7781df02f0c9}, ! Handle
  0.9.3;                                  ! Version Identifier

OS:SizingPeriod:DesignDay,
  {cc492a6a-6215-4faf-84a8-c1eefb939e3e}, ! Handle
  Lamar Municipal Ann Clg .4% Condns Enth=>MDB, ! Name
  30.5,                                   ! Maximum Dry-Bulb Temperature {C}
  16.8,                                   ! Daily Dry-Bulb Temperature Range {deltaC}
  68700,                                  ! Humidity Indicating Conditions at Maximum Dry-Bulb {BasedOnField A3}
  88477,                                  ! Barometric Pressure {Pa}
  5.8,                                    ! Wind Speed {m/s}
  180,                                    ! Wind Direction {deg}
  0,                                      ! Sky Clearness
  0,                                      ! Rain Indicator
  0,                                      ! Snow Indicator
  21,                                     ! Day of Month
  7,                                      ! Month
  SummerDesignDay,                        ! Day Type
  0,                                      ! Daylight Saving Time Indicator
  Enthalpy,                               ! Humidity Indicating Type
  ,                                       ! Humidity Indicating Day Schedule Name
  DefaultMultipliers,                     ! Dry-Bulb Temperature Range Modifier Type
  ,                                       ! Dry-Bulb Temperature Range Modifier Schedule Name
  ASHRAETau,                              ! Solar Model Indicator
  ,                                       ! Beam Solar Day Schedule Name
  ,                                       ! Diffuse Solar Day Schedule Name
  0.438,                                  ! ASHRAE Taub {dimensionless}
  1.984;                                  ! ASHRAE Taud {dimensionless}

OS:ComponentData,
  {52839661-a420-414e-a19b-dd97aeed23d5}, ! Handle
  Component Data 1,                       ! Name
  {36159ac8-ba02-46cf-b131-d3ede44cc6c4}, ! UUID
  {37bfa339-87f8-4e7a-afa3-f6cdee6762ed}, ! Version UUID
  1366306717,                             ! Creation Timestamp
  1366306717,                             ! Version Timestamp
  {cc492a6a-6215-4faf-84a8-c1eefb939e3e}; ! Name of Object 1

