
OS:Version,
  {4c3686f2-80c9-4719-8d1f-a0646585ec26}, ! Handle
  0.9.3;                                  ! Version Identifier

OS:SizingPeriod:DesignDay,
  {c8163e75-757d-42c2-9f74-5705afc83f69}, ! Handle
  Lovelock Ann Hum_n 99.6% Condns DP=>MCDB, ! Name
  -9.6,                                   ! Maximum Dry-Bulb Temperature {C}
  0,                                      ! Daily Dry-Bulb Temperature Range {deltaC}
  -19.9,                                  ! Humidity Indicating Conditions at Maximum Dry-Bulb {BasedOnField A3}
  87844,                                  ! Barometric Pressure {Pa}
  1.8,                                    ! Wind Speed {m/s}
  300,                                    ! Wind Direction {deg}
  0,                                      ! Sky Clearness
  0,                                      ! Rain Indicator
  0,                                      ! Snow Indicator
  21,                                     ! Day of Month
  12,                                     ! Month
  WinterDesignDay,                        ! Day Type
  0,                                      ! Daylight Saving Time Indicator
  Dewpoint,                               ! Humidity Indicating Type
  ,                                       ! Humidity Indicating Day Schedule Name
  DefaultMultipliers,                     ! Dry-Bulb Temperature Range Modifier Type
  ,                                       ! Dry-Bulb Temperature Range Modifier Schedule Name
  ASHRAEClearSky;                         ! Solar Model Indicator

OS:ComponentData,
  {f6b4aff7-bc5a-4cfb-abc4-50ac933d1cec}, ! Handle
  Component Data 1,                       ! Name
  {9eafc928-49f4-442f-acb9-87285d030eb9}, ! UUID
  {0c18c66e-1c37-45ad-9c9b-7ebaaf559c73}, ! Version UUID
  1366309511,                             ! Creation Timestamp
  1366309511,                             ! Version Timestamp
  {c8163e75-757d-42c2-9f74-5705afc83f69}; ! Name of Object 1

