
OS:Version,
  {e59668c6-184d-45db-ae29-b418a48f5fc9}, ! Handle
  0.9.3;                                  ! Version Identifier

OS:SizingPeriod:DesignDay,
  {8171379e-b5a5-4ef6-800b-caedc431fc82}, ! Handle
  Lander Hunt Field Ann Clg 2% Condns Enth=>MDB, ! Name
  27.1,                                   ! Maximum Dry-Bulb Temperature {C}
  15.6,                                   ! Daily Dry-Bulb Temperature Range {deltaC}
  48400,                                  ! Humidity Indicating Conditions at Maximum Dry-Bulb {BasedOnField A3}
  82562,                                  ! Barometric Pressure {Pa}
  4.2,                                    ! Wind Speed {m/s}
  220,                                    ! Wind Direction {deg}
  0,                                      ! Sky Clearness
  0,                                      ! Rain Indicator
  0,                                      ! Snow Indicator
  21,                                     ! Day of Month
  7,                                      ! Month
  SummerDesignDay,                        ! Day Type
  0,                                      ! Daylight Saving Time Indicator
  Enthalpy,                               ! Humidity Indicating Type
  ,                                       ! Humidity Indicating Day Schedule Name
  DefaultMultipliers,                     ! Dry-Bulb Temperature Range Modifier Type
  ,                                       ! Dry-Bulb Temperature Range Modifier Schedule Name
  ASHRAETau,                              ! Solar Model Indicator
  ,                                       ! Beam Solar Day Schedule Name
  ,                                       ! Diffuse Solar Day Schedule Name
  0.405,                                  ! ASHRAE Taub {dimensionless}
  2.036;                                  ! ASHRAE Taud {dimensionless}

OS:ComponentData,
  {023aa83d-b472-4285-ba06-a445eebcd8b8}, ! Handle
  Component Data 1,                       ! Name
  {ed3f1e76-c42f-4acb-b0c2-1f469dffd4b1}, ! UUID
  {c370fd86-1230-4a11-98e4-d12a29b76d8d}, ! Version UUID
  1366311751,                             ! Creation Timestamp
  1366311751,                             ! Version Timestamp
  {8171379e-b5a5-4ef6-800b-caedc431fc82}; ! Name of Object 1

