
OS:Version,
  {d9011b9f-dc1a-4560-aa53-68f7b46eadc6}, ! Handle
  0.9.3;                                  ! Version Identifier

OS:SizingPeriod:DesignDay,
  {9da97d4d-ebf8-499c-9380-738dae02aca8}, ! Handle
  Flint Bishop Intl Arpt Ann Clg .4% Condns Enth=>MDB, ! Name
  29.6,                                   ! Maximum Dry-Bulb Temperature {C}
  11.7,                                   ! Daily Dry-Bulb Temperature Range {deltaC}
  76100,                                  ! Humidity Indicating Conditions at Maximum Dry-Bulb {BasedOnField A3}
  98545,                                  ! Barometric Pressure {Pa}
  5.3,                                    ! Wind Speed {m/s}
  250,                                    ! Wind Direction {deg}
  0,                                      ! Sky Clearness
  0,                                      ! Rain Indicator
  0,                                      ! Snow Indicator
  21,                                     ! Day of Month
  7,                                      ! Month
  SummerDesignDay,                        ! Day Type
  0,                                      ! Daylight Saving Time Indicator
  Enthalpy,                               ! Humidity Indicating Type
  ,                                       ! Humidity Indicating Day Schedule Name
  DefaultMultipliers,                     ! Dry-Bulb Temperature Range Modifier Type
  ,                                       ! Dry-Bulb Temperature Range Modifier Schedule Name
  ASHRAETau,                              ! Solar Model Indicator
  ,                                       ! Beam Solar Day Schedule Name
  ,                                       ! Diffuse Solar Day Schedule Name
  0.449,                                  ! ASHRAE Taub {dimensionless}
  2.044;                                  ! ASHRAE Taud {dimensionless}

OS:ComponentData,
  {b918e065-997f-4249-8275-538600441e33}, ! Handle
  Component Data 1,                       ! Name
  {3702bc21-fb88-4384-8802-b5fb3a765812}, ! UUID
  {99068fd8-c710-4bca-be19-bf77d5c04c30}, ! Version UUID
  1366308000,                             ! Creation Timestamp
  1366308000,                             ! Version Timestamp
  {9da97d4d-ebf8-499c-9380-738dae02aca8}; ! Name of Object 1

