
OS:Version,
  {aa7adc2b-cabf-484b-b274-432ca0246ee2}, ! Handle
  0.9.3;                                  ! Version Identifier

OS:SizingPeriod:DesignDay,
  {b48db73c-8c53-4705-b2a4-47e98cbc697a}, ! Handle
  Evansville Ann Clg 1% Condns WB=>MDB,   ! Name
  31.1,                                   ! Maximum Dry-Bulb Temperature {C}
  10.6,                                   ! Daily Dry-Bulb Temperature Range {deltaC}
  25.6,                                   ! Humidity Indicating Conditions at Maximum Dry-Bulb {BasedOnField A3}
  99915,                                  ! Barometric Pressure {Pa}
  3.7,                                    ! Wind Speed {m/s}
  240,                                    ! Wind Direction {deg}
  0,                                      ! Sky Clearness
  0,                                      ! Rain Indicator
  0,                                      ! Snow Indicator
  21,                                     ! Day of Month
  7,                                      ! Month
  SummerDesignDay,                        ! Day Type
  0,                                      ! Daylight Saving Time Indicator
  Wetbulb,                                ! Humidity Indicating Type
  ,                                       ! Humidity Indicating Day Schedule Name
  DefaultMultipliers,                     ! Dry-Bulb Temperature Range Modifier Type
  ,                                       ! Dry-Bulb Temperature Range Modifier Schedule Name
  ASHRAETau,                              ! Solar Model Indicator
  ,                                       ! Beam Solar Day Schedule Name
  ,                                       ! Diffuse Solar Day Schedule Name
  0.508,                                  ! ASHRAE Taub {dimensionless}
  1.881;                                  ! ASHRAE Taud {dimensionless}

OS:ComponentData,
  {3cc2e595-935c-411a-aa76-ec17d07b4da5}, ! Handle
  Component Data 1,                       ! Name
  {4e894f8f-3ec8-4fd0-bc2f-509527e41d45}, ! UUID
  {61dfcd41-007b-4a9f-9e02-26e25557863d}, ! Version UUID
  1366307429,                             ! Creation Timestamp
  1366307429,                             ! Version Timestamp
  {b48db73c-8c53-4705-b2a4-47e98cbc697a}; ! Name of Object 1

