
OS:Version,
  {4cb0bc19-befe-42e9-ac6c-d128e81c46e8}, ! Handle
  0.9.3;                                  ! Version Identifier

OS:SizingPeriod:DesignDay,
  {d55aa9f5-f9c1-4f6c-95d7-e52f3c233be0}, ! Handle
  Edwards Afb Ann Clg 1% Condns WB=>MDB,  ! Name
  34.2,                                   ! Maximum Dry-Bulb Temperature {C}
  19.4,                                   ! Daily Dry-Bulb Temperature Range {deltaC}
  19.5,                                   ! Humidity Indicating Conditions at Maximum Dry-Bulb {BasedOnField A3}
  93126,                                  ! Barometric Pressure {Pa}
  4.9,                                    ! Wind Speed {m/s}
  240,                                    ! Wind Direction {deg}
  0,                                      ! Sky Clearness
  0,                                      ! Rain Indicator
  0,                                      ! Snow Indicator
  21,                                     ! Day of Month
  8,                                      ! Month
  SummerDesignDay,                        ! Day Type
  0,                                      ! Daylight Saving Time Indicator
  Wetbulb,                                ! Humidity Indicating Type
  ,                                       ! Humidity Indicating Day Schedule Name
  DefaultMultipliers,                     ! Dry-Bulb Temperature Range Modifier Type
  ,                                       ! Dry-Bulb Temperature Range Modifier Schedule Name
  ASHRAETau,                              ! Solar Model Indicator
  ,                                       ! Beam Solar Day Schedule Name
  ,                                       ! Diffuse Solar Day Schedule Name
  0.445,                                  ! ASHRAE Taub {dimensionless}
  1.991;                                  ! ASHRAE Taud {dimensionless}

OS:ComponentData,
  {863f7708-c152-4846-a2aa-e4408fa1edce}, ! Handle
  Component Data 1,                       ! Name
  {ada5351c-f024-4105-b063-636ff7280bf3}, ! UUID
  {4f5ade3c-178a-40dc-a858-0761c404f09c}, ! Version UUID
  1366306420,                             ! Creation Timestamp
  1366306420,                             ! Version Timestamp
  {d55aa9f5-f9c1-4f6c-95d7-e52f3c233be0}; ! Name of Object 1

