
OS:Version,
  {b8c927e4-8830-4249-8154-7d9bec51c73e}, ! Handle
  0.9.3;                                  ! Version Identifier

OS:SizingPeriod:DesignDay,
  {68f9bc9f-1388-4c56-9e9e-f9662ce5dc27}, ! Handle
  Fairchild Afb Ann Clg .4% Condns WB=>MDB, ! Name
  29.6,                                   ! Maximum Dry-Bulb Temperature {C}
  14.5,                                   ! Daily Dry-Bulb Temperature Range {deltaC}
  18.3,                                   ! Humidity Indicating Conditions at Maximum Dry-Bulb {BasedOnField A3}
  92712,                                  ! Barometric Pressure {Pa}
  3.4,                                    ! Wind Speed {m/s}
  240,                                    ! Wind Direction {deg}
  0,                                      ! Sky Clearness
  0,                                      ! Rain Indicator
  0,                                      ! Snow Indicator
  21,                                     ! Day of Month
  7,                                      ! Month
  SummerDesignDay,                        ! Day Type
  0,                                      ! Daylight Saving Time Indicator
  Wetbulb,                                ! Humidity Indicating Type
  ,                                       ! Humidity Indicating Day Schedule Name
  DefaultMultipliers,                     ! Dry-Bulb Temperature Range Modifier Type
  ,                                       ! Dry-Bulb Temperature Range Modifier Schedule Name
  ASHRAETau,                              ! Solar Model Indicator
  ,                                       ! Beam Solar Day Schedule Name
  ,                                       ! Diffuse Solar Day Schedule Name
  0.353,                                  ! ASHRAE Taub {dimensionless}
  2.387;                                  ! ASHRAE Taud {dimensionless}

OS:ComponentData,
  {909fc62d-4957-4fe9-b8f8-3edb82139163}, ! Handle
  Component Data 1,                       ! Name
  {59438bc8-4ca9-49bb-9599-91f00133576d}, ! UUID
  {a94076e3-f163-4672-be09-67b2bbe34c46}, ! Version UUID
  1366311280,                             ! Creation Timestamp
  1366311280,                             ! Version Timestamp
  {68f9bc9f-1388-4c56-9e9e-f9662ce5dc27}; ! Name of Object 1

