
OS:Version,
  {9c549124-dd8c-444e-beb7-9b9f5d5739c8}, ! Handle
  0.9.3;                                  ! Version Identifier

OS:SizingPeriod:DesignDay,
  {4a0eec33-652b-41e0-a3bd-f0c033325fcf}, ! Handle
  Las Vegas/Int'l Airpor Ann Clg 1% Condns DB=>MWB, ! Name
  41.2,                                   ! Maximum Dry-Bulb Temperature {C}
  13,                                     ! Daily Dry-Bulb Temperature Range {deltaC}
  19.7,                                   ! Humidity Indicating Conditions at Maximum Dry-Bulb {BasedOnField A3}
  93598,                                  ! Barometric Pressure {Pa}
  4.9,                                    ! Wind Speed {m/s}
  230,                                    ! Wind Direction {deg}
  0,                                      ! Sky Clearness
  0,                                      ! Rain Indicator
  0,                                      ! Snow Indicator
  21,                                     ! Day of Month
  7,                                      ! Month
  SummerDesignDay,                        ! Day Type
  0,                                      ! Daylight Saving Time Indicator
  Wetbulb,                                ! Humidity Indicating Type
  ,                                       ! Humidity Indicating Day Schedule Name
  DefaultMultipliers,                     ! Dry-Bulb Temperature Range Modifier Type
  ,                                       ! Dry-Bulb Temperature Range Modifier Schedule Name
  ASHRAETau,                              ! Solar Model Indicator
  ,                                       ! Beam Solar Day Schedule Name
  ,                                       ! Diffuse Solar Day Schedule Name
  0.55,                                   ! ASHRAE Taub {dimensionless}
  1.674;                                  ! ASHRAE Taud {dimensionless}

OS:ComponentData,
  {7c5dc1eb-f21b-4123-b8ab-2d4c378cc01e}, ! Handle
  Component Data 1,                       ! Name
  {0985cb5a-7b06-45c9-80d0-8e447cccb64f}, ! UUID
  {634948ae-976c-4ea9-a86c-66066628cdd8}, ! Version UUID
  1366309497,                             ! Creation Timestamp
  1366309497,                             ! Version Timestamp
  {4a0eec33-652b-41e0-a3bd-f0c033325fcf}; ! Name of Object 1

