
OS:Version,
  {c5b0e4fc-e49e-4ac5-90d9-63a90f96c5e0}, ! Handle
  0.9.3;                                  ! Version Identifier

OS:SizingPeriod:DesignDay,
  {cff27474-aab3-444a-b586-79ea61cfd21f}, ! Handle
  Jack Northrop Fld H Ann Clg 1% Condns Enth=>MDB, ! Name
  25,                                     ! Maximum Dry-Bulb Temperature {C}
  6.5,                                    ! Daily Dry-Bulb Temperature Range {deltaC}
  58700,                                  ! Humidity Indicating Conditions at Maximum Dry-Bulb {BasedOnField A3}
  101073,                                 ! Barometric Pressure {Pa}
  3.1,                                    ! Wind Speed {m/s}
  250,                                    ! Wind Direction {deg}
  0,                                      ! Sky Clearness
  0,                                      ! Rain Indicator
  0,                                      ! Snow Indicator
  21,                                     ! Day of Month
  7,                                      ! Month
  SummerDesignDay,                        ! Day Type
  0,                                      ! Daylight Saving Time Indicator
  Enthalpy,                               ! Humidity Indicating Type
  ,                                       ! Humidity Indicating Day Schedule Name
  DefaultMultipliers,                     ! Dry-Bulb Temperature Range Modifier Type
  ,                                       ! Dry-Bulb Temperature Range Modifier Schedule Name
  ASHRAETau,                              ! Solar Model Indicator
  ,                                       ! Beam Solar Day Schedule Name
  ,                                       ! Diffuse Solar Day Schedule Name
  0.462,                                  ! ASHRAE Taub {dimensionless}
  2.021;                                  ! ASHRAE Taud {dimensionless}

OS:ComponentData,
  {8497d8f3-ceb6-4730-8590-319033d93384}, ! Handle
  Component Data 1,                       ! Name
  {4a18782a-12b7-42ca-8d53-e1a8a3954e43}, ! UUID
  {83528488-fd3e-4d79-bbe7-ed6fcf9e0776}, ! Version UUID
  1366306447,                             ! Creation Timestamp
  1366306447,                             ! Version Timestamp
  {cff27474-aab3-444a-b586-79ea61cfd21f}; ! Name of Object 1

