
OS:Version,
  {82edbf27-7d3c-4b04-ac9b-f5f48636709a}, ! Handle
  0.9.3;                                  ! Version Identifier

OS:SizingPeriod:DesignDay,
  {597304c2-8875-4917-999b-7108d974ef0a}, ! Handle
  Bar Harbor  Awos Ann Clg 1% Condns WB=>MDB, ! Name
  23.8,                                   ! Maximum Dry-Bulb Temperature {C}
  9.6,                                    ! Daily Dry-Bulb Temperature Range {deltaC}
  20.1,                                   ! Humidity Indicating Conditions at Maximum Dry-Bulb {BasedOnField A3}
  101013,                                 ! Barometric Pressure {Pa}
  4,                                      ! Wind Speed {m/s}
  220,                                    ! Wind Direction {deg}
  0,                                      ! Sky Clearness
  0,                                      ! Rain Indicator
  0,                                      ! Snow Indicator
  21,                                     ! Day of Month
  7,                                      ! Month
  SummerDesignDay,                        ! Day Type
  0,                                      ! Daylight Saving Time Indicator
  Wetbulb,                                ! Humidity Indicating Type
  ,                                       ! Humidity Indicating Day Schedule Name
  DefaultMultipliers,                     ! Dry-Bulb Temperature Range Modifier Type
  ,                                       ! Dry-Bulb Temperature Range Modifier Schedule Name
  ASHRAETau,                              ! Solar Model Indicator
  ,                                       ! Beam Solar Day Schedule Name
  ,                                       ! Diffuse Solar Day Schedule Name
  0.469,                                  ! ASHRAE Taub {dimensionless}
  1.996;                                  ! ASHRAE Taud {dimensionless}

OS:ComponentData,
  {3b9dcda5-5083-4120-a20f-bbfc9cb76d73}, ! Handle
  Component Data 1,                       ! Name
  {eb83f31b-2af8-4548-a687-aa018cf3e7e9}, ! UUID
  {97e33f47-a26f-4324-8edb-381e99cbfbb5}, ! Version UUID
  1366307879,                             ! Creation Timestamp
  1366307879,                             ! Version Timestamp
  {597304c2-8875-4917-999b-7108d974ef0a}; ! Name of Object 1

