
OS:Version,
  {c8a280dc-6329-4750-9020-352314422c75}, ! Handle
  0.9.3;                                  ! Version Identifier

OS:SizingPeriod:DesignDay,
  {1f23a337-3c86-4425-b310-4ab4ae1bde32}, ! Handle
  Annette Island Ap Ann Clg .4% Condns DB=>MWB, ! Name
  22.7,                                   ! Maximum Dry-Bulb Temperature {C}
  5.2,                                    ! Daily Dry-Bulb Temperature Range {deltaC}
  16,                                     ! Humidity Indicating Conditions at Maximum Dry-Bulb {BasedOnField A3}
  100929,                                 ! Barometric Pressure {Pa}
  3.4,                                    ! Wind Speed {m/s}
  300,                                    ! Wind Direction {deg}
  0,                                      ! Sky Clearness
  0,                                      ! Rain Indicator
  0,                                      ! Snow Indicator
  21,                                     ! Day of Month
  8,                                      ! Month
  SummerDesignDay,                        ! Day Type
  0,                                      ! Daylight Saving Time Indicator
  Wetbulb,                                ! Humidity Indicating Type
  ,                                       ! Humidity Indicating Day Schedule Name
  DefaultMultipliers,                     ! Dry-Bulb Temperature Range Modifier Type
  ,                                       ! Dry-Bulb Temperature Range Modifier Schedule Name
  ASHRAETau,                              ! Solar Model Indicator
  ,                                       ! Beam Solar Day Schedule Name
  ,                                       ! Diffuse Solar Day Schedule Name
  0.369,                                  ! ASHRAE Taub {dimensionless}
  2.372;                                  ! ASHRAE Taud {dimensionless}

