
OS:Version,
  {449fe616-74b5-4919-837a-4c63f0854114}, ! Handle
  0.9.3;                                  ! Version Identifier

OS:SizingPeriod:DesignDay,
  {1eaf4c73-26a4-4d3a-b926-cdcbf15fd46e}, ! Handle
  Alliance Municipal Ann Htg 99% Condns DB, ! Name
  -17.8,                                  ! Maximum Dry-Bulb Temperature {C}
  0,                                      ! Daily Dry-Bulb Temperature Range {deltaC}
  -17.8,                                  ! Humidity Indicating Conditions at Maximum Dry-Bulb {BasedOnField A3}
  87737,                                  ! Barometric Pressure {Pa}
  2.8,                                    ! Wind Speed {m/s}
  10,                                     ! Wind Direction {deg}
  0,                                      ! Sky Clearness
  0,                                      ! Rain Indicator
  0,                                      ! Snow Indicator
  21,                                     ! Day of Month
  12,                                     ! Month
  WinterDesignDay,                        ! Day Type
  0,                                      ! Daylight Saving Time Indicator
  Wetbulb,                                ! Humidity Indicating Type
  ,                                       ! Humidity Indicating Day Schedule Name
  DefaultMultipliers,                     ! Dry-Bulb Temperature Range Modifier Type
  ,                                       ! Dry-Bulb Temperature Range Modifier Schedule Name
  ASHRAEClearSky;                         ! Solar Model Indicator

OS:ComponentData,
  {f8a36cae-78b6-486c-b04d-391489fe93f8}, ! Handle
  Component Data 1,                       ! Name
  {4c98afba-873a-4e6d-af9a-0476ea14238a}, ! UUID
  {7edc5ff4-ba0f-4b8c-82c4-50118548c22f}, ! Version UUID
  1366309081,                             ! Creation Timestamp
  1366309081,                             ! Version Timestamp
  {1eaf4c73-26a4-4d3a-b926-cdcbf15fd46e}; ! Name of Object 1

