
OS:Version,
  {416ea181-9c6c-424f-81cf-7027858d33c4}, ! Handle
  0.9.3;                                  ! Version Identifier

OS:SizingPeriod:DesignDay,
  {f22a4c59-f1f5-4c67-bb1c-0b46785720c4}, ! Handle
  Astoria Ann Htg Wind 99.6% Condns WS=>MCDB, ! Name
  10.4,                                   ! Maximum Dry-Bulb Temperature {C}
  0,                                      ! Daily Dry-Bulb Temperature Range {deltaC}
  10.4,                                   ! Humidity Indicating Conditions at Maximum Dry-Bulb {BasedOnField A3}
  101241,                                 ! Barometric Pressure {Pa}
  14.4,                                   ! Wind Speed {m/s}
  90,                                     ! Wind Direction {deg}
  0,                                      ! Sky Clearness
  0,                                      ! Rain Indicator
  0,                                      ! Snow Indicator
  21,                                     ! Day of Month
  12,                                     ! Month
  WinterDesignDay,                        ! Day Type
  0,                                      ! Daylight Saving Time Indicator
  Wetbulb,                                ! Humidity Indicating Type
  ,                                       ! Humidity Indicating Day Schedule Name
  DefaultMultipliers,                     ! Dry-Bulb Temperature Range Modifier Type
  ,                                       ! Dry-Bulb Temperature Range Modifier Schedule Name
  ASHRAEClearSky;                         ! Solar Model Indicator

OS:ComponentData,
  {2e199260-37df-436e-b0fd-f53b5ea713b8}, ! Handle
  Component Data 1,                       ! Name
  {aa9d4d31-0f83-4396-8bf9-ccf4b8e8a7e1}, ! UUID
  {a32bec51-6c6f-454f-8a8a-6ac867aae1e9}, ! Version UUID
  1366309971,                             ! Creation Timestamp
  1366309971,                             ! Version Timestamp
  {f22a4c59-f1f5-4c67-bb1c-0b46785720c4}; ! Name of Object 1

