
OS:Version,
  {cb47f458-69bd-4423-8579-bf1b845e247b}, ! Handle
  0.9.3;                                  ! Version Identifier

OS:SizingPeriod:DesignDay,
  {6dcdc940-ba0c-4a83-95e1-ea1bfefe95bc}, ! Handle
  BROWNSVILLE Ann Clg 2% Condns WB=>MDB,  ! Name
  30.7,                                   ! Maximum Dry-Bulb Temperature {C}
  9.5,                                    ! Daily Dry-Bulb Temperature Range {deltaC}
  26.5,                                   ! Humidity Indicating Conditions at Maximum Dry-Bulb {BasedOnField A3}
  101253,                                 ! Barometric Pressure {Pa}
  6.9,                                    ! Wind Speed {m/s}
  160,                                    ! Wind Direction {deg}
  0,                                      ! Sky Clearness
  0,                                      ! Rain Indicator
  0,                                      ! Snow Indicator
  21,                                     ! Day of Month
  8,                                      ! Month
  SummerDesignDay,                        ! Day Type
  0,                                      ! Daylight Saving Time Indicator
  Wetbulb,                                ! Humidity Indicating Type
  ,                                       ! Humidity Indicating Day Schedule Name
  DefaultMultipliers,                     ! Dry-Bulb Temperature Range Modifier Type
  ,                                       ! Dry-Bulb Temperature Range Modifier Schedule Name
  ASHRAETau,                              ! Solar Model Indicator
  ,                                       ! Beam Solar Day Schedule Name
  ,                                       ! Diffuse Solar Day Schedule Name
  0.465,                                  ! ASHRAE Taub {dimensionless}
  2.114;                                  ! ASHRAE Taud {dimensionless}

OS:ComponentData,
  {598ad011-0d0c-4d6e-8572-84e7f098db6d}, ! Handle
  Component Data 1,                       ! Name
  {b6f0c5aa-2d43-49ad-852f-8f27abf765f1}, ! UUID
  {94127741-3776-427d-8a33-6f38f9a105dc}, ! Version UUID
  1366310610,                             ! Creation Timestamp
  1366310610,                             ! Version Timestamp
  {6dcdc940-ba0c-4a83-95e1-ea1bfefe95bc}; ! Name of Object 1

