
OS:Version,
  {532e1068-3eca-4a06-83aa-0a62cf1939ee}, ! Handle
  0.9.3;                                  ! Version Identifier

OS:SizingPeriod:DesignDay,
  {ca40cdea-5ebf-4d9b-9404-d04014bc8a45}, ! Handle
  DES_MOINES Ann Clg .4% Condns Enth=>MDB, ! Name
  31.8,                                   ! Maximum Dry-Bulb Temperature {C}
  10.1,                                   ! Daily Dry-Bulb Temperature Range {deltaC}
  81300,                                  ! Humidity Indicating Conditions at Maximum Dry-Bulb {BasedOnField A3}
  97843,                                  ! Barometric Pressure {Pa}
  5.4,                                    ! Wind Speed {m/s}
  180,                                    ! Wind Direction {deg}
  0,                                      ! Sky Clearness
  0,                                      ! Rain Indicator
  0,                                      ! Snow Indicator
  21,                                     ! Day of Month
  7,                                      ! Month
  SummerDesignDay,                        ! Day Type
  0,                                      ! Daylight Saving Time Indicator
  Enthalpy,                               ! Humidity Indicating Type
  ,                                       ! Humidity Indicating Day Schedule Name
  DefaultMultipliers,                     ! Dry-Bulb Temperature Range Modifier Type
  ,                                       ! Dry-Bulb Temperature Range Modifier Schedule Name
  ASHRAETau,                              ! Solar Model Indicator
  ,                                       ! Beam Solar Day Schedule Name
  ,                                       ! Diffuse Solar Day Schedule Name
  0.425,                                  ! ASHRAE Taub {dimensionless}
  2.17;                                   ! ASHRAE Taud {dimensionless}

OS:ComponentData,
  {0d3a3e11-3db6-44f6-a885-fbb65946cf1e}, ! Handle
  Component Data 1,                       ! Name
  {dfd1aedc-02f9-4ac7-a3b7-963d9053f784}, ! UUID
  {f24b69ab-bbe6-4739-b72e-7b13cd1a4659}, ! Version UUID
  1366307171,                             ! Creation Timestamp
  1366307171,                             ! Version Timestamp
  {ca40cdea-5ebf-4d9b-9404-d04014bc8a45}; ! Name of Object 1

