
OS:Version,
  {da5d3097-f4ab-4b1e-99eb-8a6a6904f30c}, ! Handle
  0.9.3;                                  ! Version Identifier

OS:SizingPeriod:DesignDay,
  {34c59c75-e385-46f3-a101-d18b4790b162}, ! Handle
  Fairmont Muni Awos Ann Htg Wind 99.6% Condns WS=>MCDB, ! Name
  -11.3,                                  ! Maximum Dry-Bulb Temperature {C}
  0,                                      ! Daily Dry-Bulb Temperature Range {deltaC}
  -11.3,                                  ! Humidity Indicating Conditions at Maximum Dry-Bulb {BasedOnField A3}
  97144,                                  ! Barometric Pressure {Pa}
  15.6,                                   ! Wind Speed {m/s}
  330,                                    ! Wind Direction {deg}
  0,                                      ! Sky Clearness
  0,                                      ! Rain Indicator
  0,                                      ! Snow Indicator
  21,                                     ! Day of Month
  1,                                      ! Month
  WinterDesignDay,                        ! Day Type
  0,                                      ! Daylight Saving Time Indicator
  Wetbulb,                                ! Humidity Indicating Type
  ,                                       ! Humidity Indicating Day Schedule Name
  DefaultMultipliers,                     ! Dry-Bulb Temperature Range Modifier Type
  ,                                       ! Dry-Bulb Temperature Range Modifier Schedule Name
  ASHRAEClearSky;                         ! Solar Model Indicator

OS:ComponentData,
  {22d84379-2972-44ba-aed8-e008621412b6}, ! Handle
  Component Data 1,                       ! Name
  {34fcd90b-9072-4f5a-b527-2edcafa29a89}, ! UUID
  {48e538a8-66cd-4f82-be26-3e1f9c05a037}, ! Version UUID
  1366308224,                             ! Creation Timestamp
  1366308224,                             ! Version Timestamp
  {34c59c75-e385-46f3-a101-d18b4790b162}; ! Name of Object 1

