
OS:Version,
  {4ad8196b-f653-45be-b385-835f91989dc6}, ! Handle
  0.9.3;                                  ! Version Identifier

OS:SizingPeriod:DesignDay,
  {7fb71233-797f-4225-89b3-be1cd15d9f8b}, ! Handle
  Kalamazoo Battle Cr Ann Clg .4% Condns WB=>MDB, ! Name
  29.5,                                   ! Maximum Dry-Bulb Temperature {C}
  11.1,                                   ! Daily Dry-Bulb Temperature Range {deltaC}
  24.5,                                   ! Humidity Indicating Conditions at Maximum Dry-Bulb {BasedOnField A3}
  98088,                                  ! Barometric Pressure {Pa}
  4.8,                                    ! Wind Speed {m/s}
  210,                                    ! Wind Direction {deg}
  0,                                      ! Sky Clearness
  0,                                      ! Rain Indicator
  0,                                      ! Snow Indicator
  21,                                     ! Day of Month
  7,                                      ! Month
  SummerDesignDay,                        ! Day Type
  0,                                      ! Daylight Saving Time Indicator
  Wetbulb,                                ! Humidity Indicating Type
  ,                                       ! Humidity Indicating Day Schedule Name
  DefaultMultipliers,                     ! Dry-Bulb Temperature Range Modifier Type
  ,                                       ! Dry-Bulb Temperature Range Modifier Schedule Name
  ASHRAETau,                              ! Solar Model Indicator
  ,                                       ! Beam Solar Day Schedule Name
  ,                                       ! Diffuse Solar Day Schedule Name
  0.424,                                  ! ASHRAE Taub {dimensionless}
  2.175;                                  ! ASHRAE Taud {dimensionless}

OS:ComponentData,
  {705c6ee9-832e-4957-ab92-e0f8504baf13}, ! Handle
  Component Data 1,                       ! Name
  {e3040d03-29ec-40b5-bf7b-1cddf9540097}, ! UUID
  {efb8cb7b-f2a2-4d28-841e-87e0f710cca9}, ! Version UUID
  1366308049,                             ! Creation Timestamp
  1366308049,                             ! Version Timestamp
  {7fb71233-797f-4225-89b3-be1cd15d9f8b}; ! Name of Object 1

