
OS:Version,
  {9e57f81f-abda-4983-adec-c76c457c27a7}, ! Handle
  0.9.3;                                  ! Version Identifier

OS:SizingPeriod:DesignDay,
  {acd2fb1c-31f1-4448-bfc2-981003d79e9f}, ! Handle
  Astoria Ann Clg .4% Condns Enth=>MDB,   ! Name
  23.4,                                   ! Maximum Dry-Bulb Temperature {C}
  7.9,                                    ! Daily Dry-Bulb Temperature Range {deltaC}
  51500,                                  ! Humidity Indicating Conditions at Maximum Dry-Bulb {BasedOnField A3}
  101241,                                 ! Barometric Pressure {Pa}
  5.1,                                    ! Wind Speed {m/s}
  310,                                    ! Wind Direction {deg}
  0,                                      ! Sky Clearness
  0,                                      ! Rain Indicator
  0,                                      ! Snow Indicator
  21,                                     ! Day of Month
  8,                                      ! Month
  SummerDesignDay,                        ! Day Type
  0,                                      ! Daylight Saving Time Indicator
  Enthalpy,                               ! Humidity Indicating Type
  ,                                       ! Humidity Indicating Day Schedule Name
  DefaultMultipliers,                     ! Dry-Bulb Temperature Range Modifier Type
  ,                                       ! Dry-Bulb Temperature Range Modifier Schedule Name
  ASHRAETau,                              ! Solar Model Indicator
  ,                                       ! Beam Solar Day Schedule Name
  ,                                       ! Diffuse Solar Day Schedule Name
  0.355,                                  ! ASHRAE Taub {dimensionless}
  2.571;                                  ! ASHRAE Taud {dimensionless}

OS:ComponentData,
  {84ad1c7d-f5a1-4bbb-a3c4-37163e910b91}, ! Handle
  Component Data 1,                       ! Name
  {df123cb9-2dce-4e26-bf45-4a6eaf3672fd}, ! UUID
  {23d4b21d-0f84-46a7-9dc2-4f5bc57d15d0}, ! Version UUID
  1366309974,                             ! Creation Timestamp
  1366309974,                             ! Version Timestamp
  {acd2fb1c-31f1-4448-bfc2-981003d79e9f}; ! Name of Object 1

