
OS:Version,
  {0ce02670-99a6-4917-bef6-fdbcfc0c9542}, ! Handle
  0.9.3;                                  ! Version Identifier

OS:SizingPeriod:DesignDay,
  {bfb42c04-345a-4f8b-812e-3d4ca05959cd}, ! Handle
  Goodland Ann Clg .4% Condns DP=>MDB,    ! Name
  24.1,                                   ! Maximum Dry-Bulb Temperature {C}
  15,                                     ! Daily Dry-Bulb Temperature Range {deltaC}
  19.5,                                   ! Humidity Indicating Conditions at Maximum Dry-Bulb {BasedOnField A3}
  88531,                                  ! Barometric Pressure {Pa}
  6,                                      ! Wind Speed {m/s}
  160,                                    ! Wind Direction {deg}
  0,                                      ! Sky Clearness
  0,                                      ! Rain Indicator
  0,                                      ! Snow Indicator
  21,                                     ! Day of Month
  7,                                      ! Month
  SummerDesignDay,                        ! Day Type
  0,                                      ! Daylight Saving Time Indicator
  Dewpoint,                               ! Humidity Indicating Type
  ,                                       ! Humidity Indicating Day Schedule Name
  DefaultMultipliers,                     ! Dry-Bulb Temperature Range Modifier Type
  ,                                       ! Dry-Bulb Temperature Range Modifier Schedule Name
  ASHRAETau,                              ! Solar Model Indicator
  ,                                       ! Beam Solar Day Schedule Name
  ,                                       ! Diffuse Solar Day Schedule Name
  0.421,                                  ! ASHRAE Taub {dimensionless}
  2.065;                                  ! ASHRAE Taud {dimensionless}

