
OS:Version,
  {9a45be26-b847-4eff-957a-1821552b6d68}, ! Handle
  0.9.3;                                  ! Version Identifier

OS:SizingPeriod:DesignDay,
  {c9ec39b3-c139-46dd-9e09-bc834a4b0b0d}, ! Handle
  Block Island State Arpt Ann Htg 99.6% Condns DB, ! Name
  -11.6,                                  ! Maximum Dry-Bulb Temperature {C}
  0,                                      ! Daily Dry-Bulb Temperature Range {deltaC}
  -11.6,                                  ! Humidity Indicating Conditions at Maximum Dry-Bulb {BasedOnField A3}
  100917,                                 ! Barometric Pressure {Pa}
  6.3,                                    ! Wind Speed {m/s}
  310,                                    ! Wind Direction {deg}
  0,                                      ! Sky Clearness
  0,                                      ! Rain Indicator
  0,                                      ! Snow Indicator
  21,                                     ! Day of Month
  1,                                      ! Month
  WinterDesignDay,                        ! Day Type
  0,                                      ! Daylight Saving Time Indicator
  Wetbulb,                                ! Humidity Indicating Type
  ,                                       ! Humidity Indicating Day Schedule Name
  DefaultMultipliers,                     ! Dry-Bulb Temperature Range Modifier Type
  ,                                       ! Dry-Bulb Temperature Range Modifier Schedule Name
  ASHRAEClearSky;                         ! Solar Model Indicator

OS:ComponentData,
  {c9e8c2e4-75a9-45b8-aec0-d704ff05578d}, ! Handle
  Component Data 1,                       ! Name
  {ea9320dc-954e-42aa-ab47-b05c5b59f6a0}, ! UUID
  {564e7511-d572-42cd-b2d8-39edfaef56a0}, ! Version UUID
  1366310288,                             ! Creation Timestamp
  1366310288,                             ! Version Timestamp
  {c9ec39b3-c139-46dd-9e09-bc834a4b0b0d}; ! Name of Object 1

