
OS:Version,
  {a23d7693-aa41-45d4-85a9-19d3308ae098}, ! Handle
  0.9.3;                                  ! Version Identifier

OS:SizingPeriod:DesignDay,
  {4cb11992-2ff8-4e53-92c4-097aef7795ba}, ! Handle
  Homer Ann Clg 1% Condns Enth=>MDB,      ! Name
  16.6,                                   ! Maximum Dry-Bulb Temperature {C}
  6.4,                                    ! Daily Dry-Bulb Temperature Range {deltaC}
  38300,                                  ! Humidity Indicating Conditions at Maximum Dry-Bulb {BasedOnField A3}
  101025,                                 ! Barometric Pressure {Pa}
  4.4,                                    ! Wind Speed {m/s}
  250,                                    ! Wind Direction {deg}
  0,                                      ! Sky Clearness
  0,                                      ! Rain Indicator
  0,                                      ! Snow Indicator
  21,                                     ! Day of Month
  7,                                      ! Month
  SummerDesignDay,                        ! Day Type
  0,                                      ! Daylight Saving Time Indicator
  Enthalpy,                               ! Humidity Indicating Type
  ,                                       ! Humidity Indicating Day Schedule Name
  DefaultMultipliers,                     ! Dry-Bulb Temperature Range Modifier Type
  ,                                       ! Dry-Bulb Temperature Range Modifier Schedule Name
  ASHRAETau,                              ! Solar Model Indicator
  ,                                       ! Beam Solar Day Schedule Name
  ,                                       ! Diffuse Solar Day Schedule Name
  0.376,                                  ! ASHRAE Taub {dimensionless}
  2.236;                                  ! ASHRAE Taud {dimensionless}

OS:ComponentData,
  {ec4cbd3d-7a9b-4a8d-b05c-7152959b353b}, ! Handle
  Component Data 1,                       ! Name
  {05a18003-71a7-49ad-90a0-06648473caac}, ! UUID
  {db858ac4-2da0-460e-afec-96964641ebb7}, ! Version UUID
  1366305305,                             ! Creation Timestamp
  1366305305,                             ! Version Timestamp
  {4cb11992-2ff8-4e53-92c4-097aef7795ba}; ! Name of Object 1

