
OS:Version,
  {f88201fa-cb5b-4fe5-be66-7756d6c51dea}, ! Handle
  0.9.3;                                  ! Version Identifier

OS:SizingPeriod:DesignDay,
  {54802b1f-e7bd-422e-9a8e-3d5f6c6265d7}, ! Handle
  Alpena County Regional Ap Ann Clg 1% Condns Enth=>MDB, ! Name
  27.3,                                   ! Maximum Dry-Bulb Temperature {C}
  12.7,                                   ! Daily Dry-Bulb Temperature Range {deltaC}
  66700,                                  ! Humidity Indicating Conditions at Maximum Dry-Bulb {BasedOnField A3}
  98828,                                  ! Barometric Pressure {Pa}
  4.8,                                    ! Wind Speed {m/s}
  230,                                    ! Wind Direction {deg}
  0,                                      ! Sky Clearness
  0,                                      ! Rain Indicator
  0,                                      ! Snow Indicator
  21,                                     ! Day of Month
  7,                                      ! Month
  SummerDesignDay,                        ! Day Type
  0,                                      ! Daylight Saving Time Indicator
  Enthalpy,                               ! Humidity Indicating Type
  ,                                       ! Humidity Indicating Day Schedule Name
  DefaultMultipliers,                     ! Dry-Bulb Temperature Range Modifier Type
  ,                                       ! Dry-Bulb Temperature Range Modifier Schedule Name
  ASHRAETau,                              ! Solar Model Indicator
  ,                                       ! Beam Solar Day Schedule Name
  ,                                       ! Diffuse Solar Day Schedule Name
  0.42,                                   ! ASHRAE Taub {dimensionless}
  2.176;                                  ! ASHRAE Taud {dimensionless}

OS:ComponentData,
  {ea1830fd-cf88-4711-8f5b-ae540c9f296c}, ! Handle
  Component Data 1,                       ! Name
  {85e7298f-cac3-474b-92e4-f35fc0d6206f}, ! UUID
  {47616aea-3da0-479c-9728-2d9918361932}, ! Version UUID
  1366307949,                             ! Creation Timestamp
  1366307949,                             ! Version Timestamp
  {54802b1f-e7bd-422e-9a8e-3d5f6c6265d7}; ! Name of Object 1

