
OS:Version,
  {c32f1440-41ac-4880-99f8-72c5ec021e29}, ! Handle
  0.9.3;                                  ! Version Identifier

OS:SizingPeriod:DesignDay,
  {d2f28088-e73b-4682-9e72-3d2417b4234a}, ! Handle
  Lewiston Ann Clg 2% Condns WB=>MDB,     ! Name
  30.5,                                   ! Maximum Dry-Bulb Temperature {C}
  15,                                     ! Daily Dry-Bulb Temperature Range {deltaC}
  18,                                     ! Humidity Indicating Conditions at Maximum Dry-Bulb {BasedOnField A3}
  96184,                                  ! Barometric Pressure {Pa}
  3,                                      ! Wind Speed {m/s}
  320,                                    ! Wind Direction {deg}
  0,                                      ! Sky Clearness
  0,                                      ! Rain Indicator
  0,                                      ! Snow Indicator
  21,                                     ! Day of Month
  7,                                      ! Month
  SummerDesignDay,                        ! Day Type
  0,                                      ! Daylight Saving Time Indicator
  Wetbulb,                                ! Humidity Indicating Type
  ,                                       ! Humidity Indicating Day Schedule Name
  DefaultMultipliers,                     ! Dry-Bulb Temperature Range Modifier Type
  ,                                       ! Dry-Bulb Temperature Range Modifier Schedule Name
  ASHRAETau,                              ! Solar Model Indicator
  ,                                       ! Beam Solar Day Schedule Name
  ,                                       ! Diffuse Solar Day Schedule Name
  0.393,                                  ! ASHRAE Taub {dimensionless}
  2.242;                                  ! ASHRAE Taud {dimensionless}

OS:ComponentData,
  {3393e79c-df2d-485b-a67f-329e1002cf43}, ! Handle
  Component Data 1,                       ! Name
  {eea3a672-3438-4f00-97c2-1fd9e0f8f8b1}, ! UUID
  {288f9b3c-e0c6-4e3c-aed9-dd023f3261eb}, ! Version UUID
  1366307288,                             ! Creation Timestamp
  1366307288,                             ! Version Timestamp
  {d2f28088-e73b-4682-9e72-3d2417b4234a}; ! Name of Object 1

