
OS:Version,
  {16282c51-1c49-441b-b5a6-77858cbed03a}, ! Handle
  0.9.3;                                  ! Version Identifier

OS:SizingPeriod:DesignDay,
  {0d6de9a5-26d0-4fdb-8157-a7d1e45972c8}, ! Handle
  Binghamton Edwin A Link Field Ann Clg 1% Condns DB=>MWB, ! Name
  28.1,                                   ! Maximum Dry-Bulb Temperature {C}
  9.7,                                    ! Daily Dry-Bulb Temperature Range {deltaC}
  20.2,                                   ! Humidity Indicating Conditions at Maximum Dry-Bulb {BasedOnField A3}
  95598,                                  ! Barometric Pressure {Pa}
  4.6,                                    ! Wind Speed {m/s}
  240,                                    ! Wind Direction {deg}
  0,                                      ! Sky Clearness
  0,                                      ! Rain Indicator
  0,                                      ! Snow Indicator
  21,                                     ! Day of Month
  7,                                      ! Month
  SummerDesignDay,                        ! Day Type
  0,                                      ! Daylight Saving Time Indicator
  Wetbulb,                                ! Humidity Indicating Type
  ,                                       ! Humidity Indicating Day Schedule Name
  DefaultMultipliers,                     ! Dry-Bulb Temperature Range Modifier Type
  ,                                       ! Dry-Bulb Temperature Range Modifier Schedule Name
  ASHRAETau,                              ! Solar Model Indicator
  ,                                       ! Beam Solar Day Schedule Name
  ,                                       ! Diffuse Solar Day Schedule Name
  0.452,                                  ! ASHRAE Taub {dimensionless}
  2.004;                                  ! ASHRAE Taud {dimensionless}

OS:ComponentData,
  {cab543d8-9b11-4c61-a3e5-b3b98c461521}, ! Handle
  Component Data 1,                       ! Name
  {5e077bcf-f71a-4cc0-b017-fa1e43444c37}, ! UUID
  {b2d37f11-96d3-4a16-af93-8d4d118c1d55}, ! Version UUID
  1366309593,                             ! Creation Timestamp
  1366309593,                             ! Version Timestamp
  {0d6de9a5-26d0-4fdb-8157-a7d1e45972c8}; ! Name of Object 1

