
OS:Version,
  {8538af34-ff88-4fd0-a469-cb0541c5dedd}, ! Handle
  0.9.3;                                  ! Version Identifier

OS:SizingPeriod:DesignDay,
  {130aef57-b03a-4405-b582-c8138b2edf22}, ! Handle
  Cordova Ann Htg Wind 99.6% Condns WS=>MCDB, ! Name
  3.7,                                    ! Maximum Dry-Bulb Temperature {C}
  0,                                      ! Daily Dry-Bulb Temperature Range {deltaC}
  3.7,                                    ! Humidity Indicating Conditions at Maximum Dry-Bulb {BasedOnField A3}
  101181,                                 ! Barometric Pressure {Pa}
  12.4,                                   ! Wind Speed {m/s}
  10,                                     ! Wind Direction {deg}
  0,                                      ! Sky Clearness
  0,                                      ! Rain Indicator
  0,                                      ! Snow Indicator
  21,                                     ! Day of Month
  1,                                      ! Month
  WinterDesignDay,                        ! Day Type
  0,                                      ! Daylight Saving Time Indicator
  Wetbulb,                                ! Humidity Indicating Type
  ,                                       ! Humidity Indicating Day Schedule Name
  DefaultMultipliers,                     ! Dry-Bulb Temperature Range Modifier Type
  ,                                       ! Dry-Bulb Temperature Range Modifier Schedule Name
  ASHRAEClearSky;                         ! Solar Model Indicator

OS:ComponentData,
  {cf91cf30-23ff-4744-a379-7fd1f87fdc61}, ! Handle
  Component Data 1,                       ! Name
  {642c3cfa-e77c-4341-9578-54237934b63a}, ! UUID
  {a6a61c9b-9549-4024-a25f-b0dd2a0e80e4}, ! Version UUID
  1366304814,                             ! Creation Timestamp
  1366304814,                             ! Version Timestamp
  {130aef57-b03a-4405-b582-c8138b2edf22}; ! Name of Object 1

