
OS:Version,
  {4d3df1dd-a3fe-4cef-b16a-65a97d5569a6}, ! Handle
  0.9.3;                                  ! Version Identifier

OS:SizingPeriod:DesignDay,
  {320cba0f-cc67-4111-9da8-0ce5698e8aa5}, ! Handle
  Devils Lake Awos Ann Clg 2% Condns Enth=>MDB, ! Name
  25.4,                                   ! Maximum Dry-Bulb Temperature {C}
  9.6,                                    ! Daily Dry-Bulb Temperature Range {deltaC}
  59100,                                  ! Humidity Indicating Conditions at Maximum Dry-Bulb {BasedOnField A3}
  96115,                                  ! Barometric Pressure {Pa}
  5.4,                                    ! Wind Speed {m/s}
  170,                                    ! Wind Direction {deg}
  0,                                      ! Sky Clearness
  0,                                      ! Rain Indicator
  0,                                      ! Snow Indicator
  21,                                     ! Day of Month
  7,                                      ! Month
  SummerDesignDay,                        ! Day Type
  0,                                      ! Daylight Saving Time Indicator
  Enthalpy,                               ! Humidity Indicating Type
  ,                                       ! Humidity Indicating Day Schedule Name
  DefaultMultipliers,                     ! Dry-Bulb Temperature Range Modifier Type
  ,                                       ! Dry-Bulb Temperature Range Modifier Schedule Name
  ASHRAETau,                              ! Solar Model Indicator
  ,                                       ! Beam Solar Day Schedule Name
  ,                                       ! Diffuse Solar Day Schedule Name
  0.392,                                  ! ASHRAE Taub {dimensionless}
  2.235;                                  ! ASHRAE Taud {dimensionless}

OS:ComponentData,
  {4a47db0a-273d-48ba-9b91-b746adf72a65}, ! Handle
  Component Data 1,                       ! Name
  {49a5b8d9-4f34-424c-b8eb-73f840e3c2c2}, ! UUID
  {b748370d-80ed-4fbf-a38d-560e300c9fc6}, ! Version UUID
  1366309013,                             ! Creation Timestamp
  1366309013,                             ! Version Timestamp
  {320cba0f-cc67-4111-9da8-0ce5698e8aa5}; ! Name of Object 1

