
OS:Version,
  {723cc48c-a7f3-4b31-a0ae-480d02a70f8c}, ! Handle
  0.9.3;                                  ! Version Identifier

OS:SizingPeriod:DesignDay,
  {22e0cee0-2ad9-4c44-bb25-f59833e75b10}, ! Handle
  Detroit Metropolitan Arpt Ann Htg 99.6% Condns DB, ! Name
  -17,                                    ! Maximum Dry-Bulb Temperature {C}
  0,                                      ! Daily Dry-Bulb Temperature Range {deltaC}
  -17,                                    ! Humidity Indicating Conditions at Maximum Dry-Bulb {BasedOnField A3}
  99016,                                  ! Barometric Pressure {Pa}
  4.9,                                    ! Wind Speed {m/s}
  240,                                    ! Wind Direction {deg}
  0,                                      ! Sky Clearness
  0,                                      ! Rain Indicator
  0,                                      ! Snow Indicator
  21,                                     ! Day of Month
  1,                                      ! Month
  WinterDesignDay,                        ! Day Type
  0,                                      ! Daylight Saving Time Indicator
  Wetbulb,                                ! Humidity Indicating Type
  ,                                       ! Humidity Indicating Day Schedule Name
  DefaultMultipliers,                     ! Dry-Bulb Temperature Range Modifier Type
  ,                                       ! Dry-Bulb Temperature Range Modifier Schedule Name
  ASHRAEClearSky;                         ! Solar Model Indicator

OS:ComponentData,
  {c519abbd-373f-403e-a80e-94c9fae9aae8}, ! Handle
  Component Data 1,                       ! Name
  {5a83fd1f-678d-49d9-95d2-95e0337becb0}, ! UUID
  {00eb4a0e-27de-4464-b262-9cac96e3935e}, ! Version UUID
  1366307987,                             ! Creation Timestamp
  1366307987,                             ! Version Timestamp
  {22e0cee0-2ad9-4c44-bb25-f59833e75b10}; ! Name of Object 1

