
OS:Version,
  {d984ef9b-01cb-4c76-bac1-f5c888afa900}, ! Handle
  0.9.3;                                  ! Version Identifier

OS:SizingPeriod:DesignDay,
  {3fb93a97-9206-4d9c-8fe1-e31258c2bb3c}, ! Handle
  LOUISVILLE Ann Htg 99% Condns DB,       ! Name
  -9.7,                                   ! Maximum Dry-Bulb Temperature {C}
  0,                                      ! Daily Dry-Bulb Temperature Range {deltaC}
  -9.7,                                   ! Humidity Indicating Conditions at Maximum Dry-Bulb {BasedOnField A3}
  99548,                                  ! Barometric Pressure {Pa}
  3.9,                                    ! Wind Speed {m/s}
  270,                                    ! Wind Direction {deg}
  0,                                      ! Sky Clearness
  0,                                      ! Rain Indicator
  0,                                      ! Snow Indicator
  21,                                     ! Day of Month
  1,                                      ! Month
  WinterDesignDay,                        ! Day Type
  0,                                      ! Daylight Saving Time Indicator
  Wetbulb,                                ! Humidity Indicating Type
  ,                                       ! Humidity Indicating Day Schedule Name
  DefaultMultipliers,                     ! Dry-Bulb Temperature Range Modifier Type
  ,                                       ! Dry-Bulb Temperature Range Modifier Schedule Name
  ASHRAEClearSky;                         ! Solar Model Indicator

OS:ComponentData,
  {1b8d3b7b-11bf-4629-baea-514b36aab745}, ! Handle
  Component Data 1,                       ! Name
  {4b18f4b8-c508-4a07-9e40-5b955bdfaae2}, ! UUID
  {70f018e4-4c1b-4980-800a-7fccb5ac313d}, ! Version UUID
  1366307674,                             ! Creation Timestamp
  1366307674,                             ! Version Timestamp
  {3fb93a97-9206-4d9c-8fe1-e31258c2bb3c}; ! Name of Object 1

