
OS:Version,
  {423d2178-e538-4762-b9b5-eb1399153c29}, ! Handle
  0.9.3;                                  ! Version Identifier

OS:SizingPeriod:DesignDay,
  {835db3e3-e963-4a6f-851e-f86ec898fc8f}, ! Handle
  Fairmont Muni Awos Ann Hum_n 99.6% Condns DP=>MCDB, ! Name
  -23,                                    ! Maximum Dry-Bulb Temperature {C}
  0,                                      ! Daily Dry-Bulb Temperature Range {deltaC}
  -31.1,                                  ! Humidity Indicating Conditions at Maximum Dry-Bulb {BasedOnField A3}
  97144,                                  ! Barometric Pressure {Pa}
  5.3,                                    ! Wind Speed {m/s}
  330,                                    ! Wind Direction {deg}
  0,                                      ! Sky Clearness
  0,                                      ! Rain Indicator
  0,                                      ! Snow Indicator
  21,                                     ! Day of Month
  1,                                      ! Month
  WinterDesignDay,                        ! Day Type
  0,                                      ! Daylight Saving Time Indicator
  Dewpoint,                               ! Humidity Indicating Type
  ,                                       ! Humidity Indicating Day Schedule Name
  DefaultMultipliers,                     ! Dry-Bulb Temperature Range Modifier Type
  ,                                       ! Dry-Bulb Temperature Range Modifier Schedule Name
  ASHRAEClearSky;                         ! Solar Model Indicator

OS:ComponentData,
  {08d88051-5a45-4773-aef0-18cace943292}, ! Handle
  Component Data 1,                       ! Name
  {6ba4e52a-9cf4-431e-9a56-0a19eea2f881}, ! UUID
  {64d32829-88dc-4a22-a1bc-82fd19c774c8}, ! Version UUID
  1366308224,                             ! Creation Timestamp
  1366308224,                             ! Version Timestamp
  {835db3e3-e963-4a6f-851e-f86ec898fc8f}; ! Name of Object 1

