
OS:Version,
  {41c30c37-c4bd-4bec-8780-3bd24f07f216}, ! Handle
  0.9.3;                                  ! Version Identifier

OS:SizingPeriod:DesignDay,
  {8a1f6bf2-4b95-4b33-b40a-b272b8cab3af}, ! Handle
  Cox Fld Ann Clg 1% Condns DP=>MDB,      ! Name
  28.9,                                   ! Maximum Dry-Bulb Temperature {C}
  12,                                     ! Daily Dry-Bulb Temperature Range {deltaC}
  23,                                     ! Humidity Indicating Conditions at Maximum Dry-Bulb {BasedOnField A3}
  99288,                                  ! Barometric Pressure {Pa}
  3.9,                                    ! Wind Speed {m/s}
  220,                                    ! Wind Direction {deg}
  0,                                      ! Sky Clearness
  0,                                      ! Rain Indicator
  0,                                      ! Snow Indicator
  21,                                     ! Day of Month
  8,                                      ! Month
  SummerDesignDay,                        ! Day Type
  0,                                      ! Daylight Saving Time Indicator
  Dewpoint,                               ! Humidity Indicating Type
  ,                                       ! Humidity Indicating Day Schedule Name
  DefaultMultipliers,                     ! Dry-Bulb Temperature Range Modifier Type
  ,                                       ! Dry-Bulb Temperature Range Modifier Schedule Name
  ASHRAETau,                              ! Solar Model Indicator
  ,                                       ! Beam Solar Day Schedule Name
  ,                                       ! Diffuse Solar Day Schedule Name
  0.465,                                  ! ASHRAE Taub {dimensionless}
  2.066;                                  ! ASHRAE Taud {dimensionless}

OS:ComponentData,
  {81dc0ffe-e229-4209-8f4d-c4836794e782}, ! Handle
  Component Data 1,                       ! Name
  {488be7f9-12de-47b2-b6fc-3f0b91dc09bd}, ! UUID
  {d85e2462-aefd-4098-82fa-4a16d24f7b53}, ! Version UUID
  1366310646,                             ! Creation Timestamp
  1366310646,                             ! Version Timestamp
  {8a1f6bf2-4b95-4b33-b40a-b272b8cab3af}; ! Name of Object 1

