
OS:Version,
  {a9c46d4d-cad5-43a6-bc71-8cda68852725}, ! Handle
  0.9.3;                                  ! Version Identifier

OS:SizingPeriod:DesignDay,
  {eb46f5ff-9919-4d06-b141-1f9ff09b1d39}, ! Handle
  Bluefield Mercer Co  Nrel Ann Clg .4% Condns Enth=>MDB, ! Name
  26.7,                                   ! Maximum Dry-Bulb Temperature {C}
  8.6,                                    ! Daily Dry-Bulb Temperature Range {deltaC}
  68900,                                  ! Humidity Indicating Conditions at Maximum Dry-Bulb {BasedOnField A3}
  92043,                                  ! Barometric Pressure {Pa}
  2.4,                                    ! Wind Speed {m/s}
  270,                                    ! Wind Direction {deg}
  0,                                      ! Sky Clearness
  0,                                      ! Rain Indicator
  0,                                      ! Snow Indicator
  21,                                     ! Day of Month
  7,                                      ! Month
  SummerDesignDay,                        ! Day Type
  0,                                      ! Daylight Saving Time Indicator
  Enthalpy,                               ! Humidity Indicating Type
  ,                                       ! Humidity Indicating Day Schedule Name
  DefaultMultipliers,                     ! Dry-Bulb Temperature Range Modifier Type
  ,                                       ! Dry-Bulb Temperature Range Modifier Schedule Name
  ASHRAETau,                              ! Solar Model Indicator
  ,                                       ! Beam Solar Day Schedule Name
  ,                                       ! Diffuse Solar Day Schedule Name
  0.476,                                  ! ASHRAE Taub {dimensionless}
  1.931;                                  ! ASHRAE Taud {dimensionless}

OS:ComponentData,
  {7efcd628-5df7-4de7-935f-a3c1fdfae123}, ! Handle
  Component Data 1,                       ! Name
  {50812bcf-d721-4fd6-891d-bc68c3382fd7}, ! UUID
  {dbca5476-618b-4119-9950-aaebeb0b88e9}, ! Version UUID
  1366311616,                             ! Creation Timestamp
  1366311616,                             ! Version Timestamp
  {eb46f5ff-9919-4d06-b141-1f9ff09b1d39}; ! Name of Object 1

