
OS:Version,
  {b7df8afe-4e38-4d2d-b959-b3e37da070c4}, ! Handle
  0.9.3;                                  ! Version Identifier

OS:SizingPeriod:DesignDay,
  {366e1aad-fd93-4021-bd83-dfa4d55e4622}, ! Handle
  Fosston Awos Ann Htg Wind 99% Condns WS=>MCDB, ! Name
  -7.8,                                   ! Maximum Dry-Bulb Temperature {C}
  0,                                      ! Daily Dry-Bulb Temperature Range {deltaC}
  -7.8,                                   ! Humidity Indicating Conditions at Maximum Dry-Bulb {BasedOnField A3}
  96750,                                  ! Barometric Pressure {Pa}
  10.8,                                   ! Wind Speed {m/s}
  180,                                    ! Wind Direction {deg}
  0,                                      ! Sky Clearness
  0,                                      ! Rain Indicator
  0,                                      ! Snow Indicator
  21,                                     ! Day of Month
  1,                                      ! Month
  WinterDesignDay,                        ! Day Type
  0,                                      ! Daylight Saving Time Indicator
  Wetbulb,                                ! Humidity Indicating Type
  ,                                       ! Humidity Indicating Day Schedule Name
  DefaultMultipliers,                     ! Dry-Bulb Temperature Range Modifier Type
  ,                                       ! Dry-Bulb Temperature Range Modifier Schedule Name
  ASHRAEClearSky;                         ! Solar Model Indicator

OS:ComponentData,
  {eb99d467-c60e-4312-a8bb-b9b0f7369fb1}, ! Handle
  Component Data 1,                       ! Name
  {7c8dc172-61e8-4d91-a5d3-86f736bd4397}, ! UUID
  {344a1e0d-8e69-4f0b-884d-1005ad350ee2}, ! Version UUID
  1366308237,                             ! Creation Timestamp
  1366308237,                             ! Version Timestamp
  {366e1aad-fd93-4021-bd83-dfa4d55e4622}; ! Name of Object 1

