
OS:Version,
  {8b832533-b17b-4430-bb6f-dca2a88b9bdd}, ! Handle
  0.9.3;                                  ! Version Identifier

OS:SizingPeriod:DesignDay,
  {1ca6ab74-67ff-4eb3-a067-5db75a2a4751}, ! Handle
  Lovelock Ann Clg 2% Condns WB=>MDB,     ! Name
  31.1,                                   ! Maximum Dry-Bulb Temperature {C}
  20.2,                                   ! Daily Dry-Bulb Temperature Range {deltaC}
  16.9,                                   ! Humidity Indicating Conditions at Maximum Dry-Bulb {BasedOnField A3}
  87844,                                  ! Barometric Pressure {Pa}
  4.1,                                    ! Wind Speed {m/s}
  180,                                    ! Wind Direction {deg}
  0,                                      ! Sky Clearness
  0,                                      ! Rain Indicator
  0,                                      ! Snow Indicator
  21,                                     ! Day of Month
  7,                                      ! Month
  SummerDesignDay,                        ! Day Type
  0,                                      ! Daylight Saving Time Indicator
  Wetbulb,                                ! Humidity Indicating Type
  ,                                       ! Humidity Indicating Day Schedule Name
  DefaultMultipliers,                     ! Dry-Bulb Temperature Range Modifier Type
  ,                                       ! Dry-Bulb Temperature Range Modifier Schedule Name
  ASHRAETau,                              ! Solar Model Indicator
  ,                                       ! Beam Solar Day Schedule Name
  ,                                       ! Diffuse Solar Day Schedule Name
  0.427,                                  ! ASHRAE Taub {dimensionless}
  1.948;                                  ! ASHRAE Taud {dimensionless}

OS:ComponentData,
  {c51ed94d-a29b-4164-8167-171501f64388}, ! Handle
  Component Data 1,                       ! Name
  {1134a0a2-f469-4396-801a-0650d15e08cf}, ! UUID
  {ba7216d1-4f12-4b1c-9e11-03ea98d57247}, ! Version UUID
  1366309512,                             ! Creation Timestamp
  1366309512,                             ! Version Timestamp
  {1ca6ab74-67ff-4eb3-a067-5db75a2a4751}; ! Name of Object 1

