
OS:Version,
  {a0c6a248-c32a-4bb2-b018-fe4a5be0493a}, ! Handle
  0.9.3;                                  ! Version Identifier

OS:SizingPeriod:DesignDay,
  {b910abcd-10bc-411c-82c7-25347af26c3c}, ! Handle
  Albuquerque Ann Htg 99.6% Condns DB,    ! Name
  -7.9,                                   ! Maximum Dry-Bulb Temperature {C}
  0,                                      ! Daily Dry-Bulb Temperature Range {deltaC}
  -7.9,                                   ! Humidity Indicating Conditions at Maximum Dry-Bulb {BasedOnField A3}
  83318,                                  ! Barometric Pressure {Pa}
  3.2,                                    ! Wind Speed {m/s}
  0,                                      ! Wind Direction {deg}
  0,                                      ! Sky Clearness
  0,                                      ! Rain Indicator
  0,                                      ! Snow Indicator
  21,                                     ! Day of Month
  12,                                     ! Month
  WinterDesignDay,                        ! Day Type
  0,                                      ! Daylight Saving Time Indicator
  Wetbulb,                                ! Humidity Indicating Type
  ,                                       ! Humidity Indicating Day Schedule Name
  DefaultMultipliers,                     ! Dry-Bulb Temperature Range Modifier Type
  ,                                       ! Dry-Bulb Temperature Range Modifier Schedule Name
  ASHRAEClearSky;                         ! Solar Model Indicator

OS:ComponentData,
  {e183c977-4980-43cb-b52a-2e0122f90310}, ! Handle
  Component Data 1,                       ! Name
  {c16f91e1-db60-49d5-b2cd-55e835173b35}, ! UUID
  {eb5c4327-0550-4baf-be4e-949cd66ad2a1}, ! Version UUID
  1366309362,                             ! Creation Timestamp
  1366309362,                             ! Version Timestamp
  {b910abcd-10bc-411c-82c7-25347af26c3c}; ! Name of Object 1

