
OS:Version,
  {f5b32c69-23f8-4af4-b443-8235a0866254}, ! Handle
  0.9.3;                                  ! Version Identifier

OS:SizingPeriod:DesignDay,
  {74f68042-2d5c-4751-909d-174dbd25ef5b}, ! Handle
  Houghton Lake Roscommon Co Ar Ann Clg 2% Condns DB=>MWB, ! Name
  27.4,                                   ! Maximum Dry-Bulb Temperature {C}
  12.8,                                   ! Daily Dry-Bulb Temperature Range {deltaC}
  19.9,                                   ! Humidity Indicating Conditions at Maximum Dry-Bulb {BasedOnField A3}
  97179,                                  ! Barometric Pressure {Pa}
  4.2,                                    ! Wind Speed {m/s}
  240,                                    ! Wind Direction {deg}
  0,                                      ! Sky Clearness
  0,                                      ! Rain Indicator
  0,                                      ! Snow Indicator
  21,                                     ! Day of Month
  7,                                      ! Month
  SummerDesignDay,                        ! Day Type
  0,                                      ! Daylight Saving Time Indicator
  Wetbulb,                                ! Humidity Indicating Type
  ,                                       ! Humidity Indicating Day Schedule Name
  DefaultMultipliers,                     ! Dry-Bulb Temperature Range Modifier Type
  ,                                       ! Dry-Bulb Temperature Range Modifier Schedule Name
  ASHRAETau,                              ! Solar Model Indicator
  ,                                       ! Beam Solar Day Schedule Name
  ,                                       ! Diffuse Solar Day Schedule Name
  0.413,                                  ! ASHRAE Taub {dimensionless}
  2.189;                                  ! ASHRAE Taud {dimensionless}

OS:ComponentData,
  {76ab474a-0c5a-41a6-9a9c-e37027be4849}, ! Handle
  Component Data 1,                       ! Name
  {96f7257b-3efc-40d4-8dc8-786c6e4ba055}, ! UUID
  {0bfa01b1-9408-4866-94f2-535911665603}, ! Version UUID
  1366308026,                             ! Creation Timestamp
  1366308026,                             ! Version Timestamp
  {74f68042-2d5c-4751-909d-174dbd25ef5b}; ! Name of Object 1

