
OS:Version,
  {64f7a08a-8171-4bd1-842b-1b23fb90a20b}, ! Handle
  0.9.3;                                  ! Version Identifier

OS:SizingPeriod:DesignDay,
  {488e61b8-837d-4d7f-8341-df52ff621c98}, ! Handle
  Big Delta/Ft Greely Ann Htg 99.6% Condns DB, ! Name
  -40.1,                                  ! Maximum Dry-Bulb Temperature {C}
  0,                                      ! Daily Dry-Bulb Temperature Range {deltaC}
  -40.1,                                  ! Humidity Indicating Conditions at Maximum Dry-Bulb {BasedOnField A3}
  96715,                                  ! Barometric Pressure {Pa}
  1,                                      ! Wind Speed {m/s}
  180,                                    ! Wind Direction {deg}
  0,                                      ! Sky Clearness
  0,                                      ! Rain Indicator
  0,                                      ! Snow Indicator
  21,                                     ! Day of Month
  1,                                      ! Month
  WinterDesignDay,                        ! Day Type
  0,                                      ! Daylight Saving Time Indicator
  Wetbulb,                                ! Humidity Indicating Type
  ,                                       ! Humidity Indicating Day Schedule Name
  DefaultMultipliers,                     ! Dry-Bulb Temperature Range Modifier Type
  ,                                       ! Dry-Bulb Temperature Range Modifier Schedule Name
  ASHRAEClearSky;                         ! Solar Model Indicator

OS:ComponentData,
  {2412443c-b88f-4dab-9bd5-d92e4b736b65}, ! Handle
  Component Data 1,                       ! Name
  {2b78efb0-d027-4015-bc49-874be7cc9a9f}, ! UUID
  {4cf2d088-e00e-4661-85c2-ec2e22c1a521}, ! Version UUID
  1366304770,                             ! Creation Timestamp
  1366304770,                             ! Version Timestamp
  {488e61b8-837d-4d7f-8341-df52ff621c98}; ! Name of Object 1

