
OS:Version,
  {7d111982-4762-44ea-ae08-f2cdef3d8235}, ! Handle
  0.9.3;                                  ! Version Identifier

OS:SizingPeriod:DesignDay,
  {94c1bb86-8776-45f1-bfb3-cd05e868bf1a}, ! Handle
  Amarillo Ann Clg 2% Condns DP=>MDB,     ! Name
  23.2,                                   ! Maximum Dry-Bulb Temperature {C}
  13.8,                                   ! Daily Dry-Bulb Temperature Range {deltaC}
  18.2,                                   ! Humidity Indicating Conditions at Maximum Dry-Bulb {BasedOnField A3}
  88801,                                  ! Barometric Pressure {Pa}
  6.9,                                    ! Wind Speed {m/s}
  210,                                    ! Wind Direction {deg}
  0,                                      ! Sky Clearness
  0,                                      ! Rain Indicator
  0,                                      ! Snow Indicator
  21,                                     ! Day of Month
  7,                                      ! Month
  SummerDesignDay,                        ! Day Type
  0,                                      ! Daylight Saving Time Indicator
  Dewpoint,                               ! Humidity Indicating Type
  ,                                       ! Humidity Indicating Day Schedule Name
  DefaultMultipliers,                     ! Dry-Bulb Temperature Range Modifier Type
  ,                                       ! Dry-Bulb Temperature Range Modifier Schedule Name
  ASHRAETau,                              ! Solar Model Indicator
  ,                                       ! Beam Solar Day Schedule Name
  ,                                       ! Diffuse Solar Day Schedule Name
  0.414,                                  ! ASHRAE Taub {dimensionless}
  2.136;                                  ! ASHRAE Taud {dimensionless}

OS:ComponentData,
  {74a10a93-332b-4b6b-9f46-21ac53acfcfd}, ! Handle
  Component Data 1,                       ! Name
  {0b666f47-627b-4d1c-9c53-6d349705e20c}, ! UUID
  {56082fc0-3887-437a-afaf-f65e525d25c6}, ! Version UUID
  1366310571,                             ! Creation Timestamp
  1366310571,                             ! Version Timestamp
  {94c1bb86-8776-45f1-bfb3-cd05e868bf1a}; ! Name of Object 1

