
OS:Version,
  {641868f0-a2e0-4ac3-bd9d-c3c972a43673}, ! Handle
  0.9.3;                                  ! Version Identifier

OS:SizingPeriod:DesignDay,
  {9e6cc707-3d0b-4d59-9035-517763067540}, ! Handle
  Baker Municipal Ap Ann Clg .4% Condns DB=>MWB, ! Name
  33.8,                                   ! Maximum Dry-Bulb Temperature {C}
  19.6,                                   ! Daily Dry-Bulb Temperature Range {deltaC}
  17.2,                                   ! Humidity Indicating Conditions at Maximum Dry-Bulb {BasedOnField A3}
  89581,                                  ! Barometric Pressure {Pa}
  3.9,                                    ! Wind Speed {m/s}
  320,                                    ! Wind Direction {deg}
  0,                                      ! Sky Clearness
  0,                                      ! Rain Indicator
  0,                                      ! Snow Indicator
  21,                                     ! Day of Month
  7,                                      ! Month
  SummerDesignDay,                        ! Day Type
  0,                                      ! Daylight Saving Time Indicator
  Wetbulb,                                ! Humidity Indicating Type
  ,                                       ! Humidity Indicating Day Schedule Name
  DefaultMultipliers,                     ! Dry-Bulb Temperature Range Modifier Type
  ,                                       ! Dry-Bulb Temperature Range Modifier Schedule Name
  ASHRAETau,                              ! Solar Model Indicator
  ,                                       ! Beam Solar Day Schedule Name
  ,                                       ! Diffuse Solar Day Schedule Name
  0.363,                                  ! ASHRAE Taub {dimensionless}
  2.324;                                  ! ASHRAE Taud {dimensionless}

OS:ComponentData,
  {0008870c-94a6-4f3d-955c-d943a5cb07d5}, ! Handle
  Component Data 1,                       ! Name
  {0837d410-8ecd-416e-802d-18219dcef507}, ! UUID
  {a1789ba1-cc0f-4651-a931-e2f8dcaa3338}, ! Version UUID
  1366309986,                             ! Creation Timestamp
  1366309986,                             ! Version Timestamp
  {9e6cc707-3d0b-4d59-9035-517763067540}; ! Name of Object 1

