
OS:Version,
  {424d530b-1907-4ab4-bfb7-9cf3bc121fa6}, ! Handle
  0.9.3;                                  ! Version Identifier

OS:SizingPeriod:DesignDay,
  {276427ce-1920-4fe3-843e-55b7e482d128}, ! Handle
  International Falls Ann Hum_n 99.6% Condns DP=>MCDB, ! Name
  -32,                                    ! Maximum Dry-Bulb Temperature {C}
  0,                                      ! Daily Dry-Bulb Temperature Range {deltaC}
  -35.8,                                  ! Humidity Indicating Conditions at Maximum Dry-Bulb {BasedOnField A3}
  97063,                                  ! Barometric Pressure {Pa}
  2.4,                                    ! Wind Speed {m/s}
  210,                                    ! Wind Direction {deg}
  0,                                      ! Sky Clearness
  0,                                      ! Rain Indicator
  0,                                      ! Snow Indicator
  21,                                     ! Day of Month
  1,                                      ! Month
  WinterDesignDay,                        ! Day Type
  0,                                      ! Daylight Saving Time Indicator
  Dewpoint,                               ! Humidity Indicating Type
  ,                                       ! Humidity Indicating Day Schedule Name
  DefaultMultipliers,                     ! Dry-Bulb Temperature Range Modifier Type
  ,                                       ! Dry-Bulb Temperature Range Modifier Schedule Name
  ASHRAEClearSky;                         ! Solar Model Indicator

OS:ComponentData,
  {8d3972ed-23d9-4f90-b388-722f5b5b681c}, ! Handle
  Component Data 1,                       ! Name
  {12a383b7-f64e-417a-8b3a-ba7904d46d02}, ! UUID
  {c9d56757-15a8-49a7-b191-4d85b38b0d66}, ! Version UUID
  1366308271,                             ! Creation Timestamp
  1366308271,                             ! Version Timestamp
  {276427ce-1920-4fe3-843e-55b7e482d128}; ! Name of Object 1

