
OS:Version,
  {4618cf37-aa86-4606-a0fc-2fce35b0f73a}, ! Handle
  0.9.3;                                  ! Version Identifier

OS:SizingPeriod:DesignDay,
  {211bd62d-6386-4842-abd4-c6dd8735ed2c}, ! Handle
  CEDAR_CITY Ann Clg 1% Condns DB=>MWB,   ! Name
  32.8,                                   ! Maximum Dry-Bulb Temperature {C}
  16.7,                                   ! Daily Dry-Bulb Temperature Range {deltaC}
  14.9,                                   ! Humidity Indicating Conditions at Maximum Dry-Bulb {BasedOnField A3}
  82379,                                  ! Barometric Pressure {Pa}
  5,                                      ! Wind Speed {m/s}
  210,                                    ! Wind Direction {deg}
  0,                                      ! Sky Clearness
  0,                                      ! Rain Indicator
  0,                                      ! Snow Indicator
  21,                                     ! Day of Month
  7,                                      ! Month
  SummerDesignDay,                        ! Day Type
  0,                                      ! Daylight Saving Time Indicator
  Wetbulb,                                ! Humidity Indicating Type
  ,                                       ! Humidity Indicating Day Schedule Name
  DefaultMultipliers,                     ! Dry-Bulb Temperature Range Modifier Type
  ,                                       ! Dry-Bulb Temperature Range Modifier Schedule Name
  ASHRAETau,                              ! Solar Model Indicator
  ,                                       ! Beam Solar Day Schedule Name
  ,                                       ! Diffuse Solar Day Schedule Name
  0.415,                                  ! ASHRAE Taub {dimensionless}
  2.019;                                  ! ASHRAE Taud {dimensionless}

OS:ComponentData,
  {d9940ea4-1eaf-4d2a-9799-164e7aa43e72}, ! Handle
  Component Data 1,                       ! Name
  {535d6018-7a6e-47ec-9d22-9b09e5acf095}, ! UUID
  {033bd13c-0f34-48e7-9524-290f5310bdf8}, ! Version UUID
  1366310949,                             ! Creation Timestamp
  1366310949,                             ! Version Timestamp
  {211bd62d-6386-4842-abd4-c6dd8735ed2c}; ! Name of Object 1

