
OS:Version,
  {088944e5-8e04-470c-8adb-7ad34087a6d9}, ! Handle
  0.9.3;                                  ! Version Identifier

OS:SizingPeriod:DesignDay,
  {63f655f6-1a28-40b9-8b36-96ee6248007e}, ! Handle
  Fort Polk Aaf Ann Clg 2% Condns Enth=>MDB, ! Name
  30.6,                                   ! Maximum Dry-Bulb Temperature {C}
  10,                                     ! Daily Dry-Bulb Temperature Range {deltaC}
  78800,                                  ! Humidity Indicating Conditions at Maximum Dry-Bulb {BasedOnField A3}
  100106,                                 ! Barometric Pressure {Pa}
  2.2,                                    ! Wind Speed {m/s}
  180,                                    ! Wind Direction {deg}
  0,                                      ! Sky Clearness
  0,                                      ! Rain Indicator
  0,                                      ! Snow Indicator
  21,                                     ! Day of Month
  7,                                      ! Month
  SummerDesignDay,                        ! Day Type
  0,                                      ! Daylight Saving Time Indicator
  Enthalpy,                               ! Humidity Indicating Type
  ,                                       ! Humidity Indicating Day Schedule Name
  DefaultMultipliers,                     ! Dry-Bulb Temperature Range Modifier Type
  ,                                       ! Dry-Bulb Temperature Range Modifier Schedule Name
  ASHRAETau,                              ! Solar Model Indicator
  ,                                       ! Beam Solar Day Schedule Name
  ,                                       ! Diffuse Solar Day Schedule Name
  0.512,                                  ! ASHRAE Taub {dimensionless}
  1.937;                                  ! ASHRAE Taud {dimensionless}

OS:ComponentData,
  {7d196fd2-f42c-4fe1-af25-34d0c65e8f21}, ! Handle
  Component Data 1,                       ! Name
  {b1e6f488-b4e8-4273-ab4e-e56e48285b42}, ! UUID
  {584f36a8-bd37-4483-9986-f996eb9315bc}, ! Version UUID
  1366307716,                             ! Creation Timestamp
  1366307716,                             ! Version Timestamp
  {63f655f6-1a28-40b9-8b36-96ee6248007e}; ! Name of Object 1

