
OS:Version,
  {afc1fbc6-dd82-4831-a959-8ee918ae272e}, ! Handle
  0.9.3;                                  ! Version Identifier

OS:SizingPeriod:DesignDay,
  {ab912199-b492-4b5b-aa26-0494ac697978}, ! Handle
  Bemidji Municipal Ann Clg 2% Condns DB=>MWB, ! Name
  27.3,                                   ! Maximum Dry-Bulb Temperature {C}
  10.7,                                   ! Daily Dry-Bulb Temperature Range {deltaC}
  19.1,                                   ! Humidity Indicating Conditions at Maximum Dry-Bulb {BasedOnField A3}
  96380,                                  ! Barometric Pressure {Pa}
  5.3,                                    ! Wind Speed {m/s}
  180,                                    ! Wind Direction {deg}
  0,                                      ! Sky Clearness
  0,                                      ! Rain Indicator
  0,                                      ! Snow Indicator
  21,                                     ! Day of Month
  7,                                      ! Month
  SummerDesignDay,                        ! Day Type
  0,                                      ! Daylight Saving Time Indicator
  Wetbulb,                                ! Humidity Indicating Type
  ,                                       ! Humidity Indicating Day Schedule Name
  DefaultMultipliers,                     ! Dry-Bulb Temperature Range Modifier Type
  ,                                       ! Dry-Bulb Temperature Range Modifier Schedule Name
  ASHRAETau,                              ! Solar Model Indicator
  ,                                       ! Beam Solar Day Schedule Name
  ,                                       ! Diffuse Solar Day Schedule Name
  0.389,                                  ! ASHRAE Taub {dimensionless}
  2.27;                                   ! ASHRAE Taud {dimensionless}

OS:ComponentData,
  {028f5b99-65df-43a2-9bdf-3dc95036b203}, ! Handle
  Component Data 1,                       ! Name
  {884e673e-c318-4008-91dd-0d88ba9a6133}, ! UUID
  {0a3d947e-19a0-4db3-8749-213078157cec}, ! Version UUID
  1366308158,                             ! Creation Timestamp
  1366308158,                             ! Version Timestamp
  {ab912199-b492-4b5b-aa26-0494ac697978}; ! Name of Object 1

