
OS:Version,
  {255f9126-cb4b-4781-b4a2-2ed5b7e1eb18}, ! Handle
  0.9.3;                                  ! Version Identifier

OS:SizingPeriod:DesignDay,
  {7f6c2c23-5a5a-4a18-90f4-e664baed84ae}, ! Handle
  Daytona Beach Ann Clg .4% Condns Enth=>MDB, ! Name
  31,                                     ! Maximum Dry-Bulb Temperature {C}
  9,                                      ! Daily Dry-Bulb Temperature Range {deltaC}
  82600,                                  ! Humidity Indicating Conditions at Maximum Dry-Bulb {BasedOnField A3}
  101193,                                 ! Barometric Pressure {Pa}
  4.4,                                    ! Wind Speed {m/s}
  230,                                    ! Wind Direction {deg}
  0,                                      ! Sky Clearness
  0,                                      ! Rain Indicator
  0,                                      ! Snow Indicator
  21,                                     ! Day of Month
  7,                                      ! Month
  SummerDesignDay,                        ! Day Type
  0,                                      ! Daylight Saving Time Indicator
  Enthalpy,                               ! Humidity Indicating Type
  ,                                       ! Humidity Indicating Day Schedule Name
  DefaultMultipliers,                     ! Dry-Bulb Temperature Range Modifier Type
  ,                                       ! Dry-Bulb Temperature Range Modifier Schedule Name
  ASHRAETau,                              ! Solar Model Indicator
  ,                                       ! Beam Solar Day Schedule Name
  ,                                       ! Diffuse Solar Day Schedule Name
  0.512,                                  ! ASHRAE Taub {dimensionless}
  1.951;                                  ! ASHRAE Taud {dimensionless}

OS:ComponentData,
  {e3cafe91-bcb3-4bbe-b595-a637e4128c30}, ! Handle
  Component Data 1,                       ! Name
  {0049c97e-8869-42ea-a12a-0fb7906a780f}, ! UUID
  {691fac2b-3647-467f-9714-6936bd18f544}, ! Version UUID
  1366306791,                             ! Creation Timestamp
  1366306791,                             ! Version Timestamp
  {7f6c2c23-5a5a-4a18-90f4-e664baed84ae}; ! Name of Object 1

