
OS:Version,
  {ab99a325-6abe-4ad3-8531-cdcfc5ec6e9b}, ! Handle
  0.9.3;                                  ! Version Identifier

OS:SizingPeriod:DesignDay,
  {42e47f16-28c2-4665-93c1-dd5d806a0ae0}, ! Handle
  Ambler Ann Clg .4% Condns DP=>MDB,      ! Name
  17.6,                                   ! Maximum Dry-Bulb Temperature {C}
  8.6,                                    ! Daily Dry-Bulb Temperature Range {deltaC}
  13.4,                                   ! Humidity Indicating Conditions at Maximum Dry-Bulb {BasedOnField A3}
  100272,                                 ! Barometric Pressure {Pa}
  2.9,                                    ! Wind Speed {m/s}
  220,                                    ! Wind Direction {deg}
  0,                                      ! Sky Clearness
  0,                                      ! Rain Indicator
  0,                                      ! Snow Indicator
  21,                                     ! Day of Month
  7,                                      ! Month
  SummerDesignDay,                        ! Day Type
  0,                                      ! Daylight Saving Time Indicator
  Dewpoint,                               ! Humidity Indicating Type
  ,                                       ! Humidity Indicating Day Schedule Name
  DefaultMultipliers,                     ! Dry-Bulb Temperature Range Modifier Type
  ,                                       ! Dry-Bulb Temperature Range Modifier Schedule Name
  ASHRAETau,                              ! Solar Model Indicator
  ,                                       ! Beam Solar Day Schedule Name
  ,                                       ! Diffuse Solar Day Schedule Name
  0.377,                                  ! ASHRAE Taub {dimensionless}
  2.198;                                  ! ASHRAE Taud {dimensionless}

OS:ComponentData,
  {26c12c0b-b27b-4831-8e9c-44f50bf57aa9}, ! Handle
  Component Data 1,                       ! Name
  {c4104595-387b-4851-8ff9-3359b2d09cfc}, ! UUID
  {5cdbe709-b567-417b-b4c8-22b67cb3f339}, ! Version UUID
  1366304686,                             ! Creation Timestamp
  1366304686,                             ! Version Timestamp
  {42e47f16-28c2-4665-93c1-dd5d806a0ae0}; ! Name of Object 1

