
OS:Version,
  {c9d4e99e-25db-4a5a-8638-3657377814f0}, ! Handle
  0.9.3;                                  ! Version Identifier

OS:SizingPeriod:DesignDay,
  {50339d17-d94e-4545-ba25-6ac83e9188ef}, ! Handle
  Hunter Aaf Ann Htg Wind 99.6% Condns WS=>MCDB, ! Name
  9.6,                                    ! Maximum Dry-Bulb Temperature {C}
  0,                                      ! Daily Dry-Bulb Temperature Range {deltaC}
  9.6,                                    ! Humidity Indicating Conditions at Maximum Dry-Bulb {BasedOnField A3}
  101169,                                 ! Barometric Pressure {Pa}
  10.2,                                   ! Wind Speed {m/s}
  270,                                    ! Wind Direction {deg}
  0,                                      ! Sky Clearness
  0,                                      ! Rain Indicator
  0,                                      ! Snow Indicator
  21,                                     ! Day of Month
  1,                                      ! Month
  WinterDesignDay,                        ! Day Type
  0,                                      ! Daylight Saving Time Indicator
  Wetbulb,                                ! Humidity Indicating Type
  ,                                       ! Humidity Indicating Day Schedule Name
  DefaultMultipliers,                     ! Dry-Bulb Temperature Range Modifier Type
  ,                                       ! Dry-Bulb Temperature Range Modifier Schedule Name
  ASHRAEClearSky;                         ! Solar Model Indicator

OS:ComponentData,
  {798fd05f-d87d-41cb-8342-65f4813e6ad4}, ! Handle
  Component Data 1,                       ! Name
  {e90cfc64-c7aa-452f-a7ca-10cba02eaedd}, ! UUID
  {16582806-3cba-462a-8cb7-2714e3762296}, ! Version UUID
  1366307039,                             ! Creation Timestamp
  1366307039,                             ! Version Timestamp
  {50339d17-d94e-4545-ba25-6ac83e9188ef}; ! Name of Object 1

