
OS:Version,
  {309c56bd-3348-4974-be21-78059ee2ce14}, ! Handle
  0.9.3;                                  ! Version Identifier

OS:SizingPeriod:DesignDay,
  {f410c8aa-dbf7-488c-8a30-97c01ce86d5e}, ! Handle
  Berlin Municipal Ann Clg .4% Condns WB=>MDB, ! Name
  27.3,                                   ! Maximum Dry-Bulb Temperature {C}
  13.8,                                   ! Daily Dry-Bulb Temperature Range {deltaC}
  21.9,                                   ! Humidity Indicating Conditions at Maximum Dry-Bulb {BasedOnField A3}
  97156,                                  ! Barometric Pressure {Pa}
  3,                                      ! Wind Speed {m/s}
  290,                                    ! Wind Direction {deg}
  0,                                      ! Sky Clearness
  0,                                      ! Rain Indicator
  0,                                      ! Snow Indicator
  21,                                     ! Day of Month
  7,                                      ! Month
  SummerDesignDay,                        ! Day Type
  0,                                      ! Daylight Saving Time Indicator
  Wetbulb,                                ! Humidity Indicating Type
  ,                                       ! Humidity Indicating Day Schedule Name
  DefaultMultipliers,                     ! Dry-Bulb Temperature Range Modifier Type
  ,                                       ! Dry-Bulb Temperature Range Modifier Schedule Name
  ASHRAETau,                              ! Solar Model Indicator
  ,                                       ! Beam Solar Day Schedule Name
  ,                                       ! Diffuse Solar Day Schedule Name
  0.442,                                  ! ASHRAE Taub {dimensionless}
  2.043;                                  ! ASHRAE Taud {dimensionless}

OS:ComponentData,
  {c8c19862-a9a7-4f52-9774-fa4d5303bf8f}, ! Handle
  Component Data 1,                       ! Name
  {2a55c22f-8f9e-4222-b64e-fffd0363cf79}, ! UUID
  {1439c9f6-7926-43a1-9259-d765b1a23933}, ! Version UUID
  1366309214,                             ! Creation Timestamp
  1366309214,                             ! Version Timestamp
  {f410c8aa-dbf7-488c-8a30-97c01ce86d5e}; ! Name of Object 1

