
OS:Version,
  {22a5291a-931c-4b39-9b8a-e90b54d68c5f}, ! Handle
  0.9.3;                                  ! Version Identifier

OS:SizingPeriod:DesignDay,
  {e1613f93-8bdb-4264-b98e-461c8f7f0fd1}, ! Handle
  Albany Ann Htg Wind 99.6% Condns WS=>MCDB, ! Name
  -5.4,                                   ! Maximum Dry-Bulb Temperature {C}
  0,                                      ! Daily Dry-Bulb Temperature Range {deltaC}
  -5.4,                                   ! Humidity Indicating Conditions at Maximum Dry-Bulb {BasedOnField A3}
  100260,                                 ! Barometric Pressure {Pa}
  12.1,                                   ! Wind Speed {m/s}
  300,                                    ! Wind Direction {deg}
  0,                                      ! Sky Clearness
  0,                                      ! Rain Indicator
  0,                                      ! Snow Indicator
  21,                                     ! Day of Month
  1,                                      ! Month
  WinterDesignDay,                        ! Day Type
  0,                                      ! Daylight Saving Time Indicator
  Wetbulb,                                ! Humidity Indicating Type
  ,                                       ! Humidity Indicating Day Schedule Name
  DefaultMultipliers,                     ! Dry-Bulb Temperature Range Modifier Type
  ,                                       ! Dry-Bulb Temperature Range Modifier Schedule Name
  ASHRAEClearSky;                         ! Solar Model Indicator

OS:ComponentData,
  {2f627911-2881-410c-8bc3-a00a56640efd}, ! Handle
  Component Data 1,                       ! Name
  {294e4ca9-9c02-4cd6-ad80-a78f2f3534a9}, ! UUID
  {661b4a69-56aa-42f1-85d9-aecea28c2b4d}, ! Version UUID
  1366309579,                             ! Creation Timestamp
  1366309579,                             ! Version Timestamp
  {e1613f93-8bdb-4264-b98e-461c8f7f0fd1}; ! Name of Object 1

