
OS:Version,
  {34a7a5cf-4003-460d-bfd7-20077e80f534}, ! Handle
  0.9.3;                                  ! Version Identifier

OS:SizingPeriod:DesignDay,
  {34f18096-394c-41a3-9988-4e80173e9b6f}, ! Handle
  Gadsen Muni  Awos Ann Hum_n 99% Condns DP=>MCDB, ! Name
  -2,                                     ! Maximum Dry-Bulb Temperature {C}
  0,                                      ! Daily Dry-Bulb Temperature Range {deltaC}
  -12.3,                                  ! Humidity Indicating Conditions at Maximum Dry-Bulb {BasedOnField A3}
  99264,                                  ! Barometric Pressure {Pa}
  1.6,                                    ! Wind Speed {m/s}
  340,                                    ! Wind Direction {deg}
  0,                                      ! Sky Clearness
  0,                                      ! Rain Indicator
  0,                                      ! Snow Indicator
  21,                                     ! Day of Month
  1,                                      ! Month
  WinterDesignDay,                        ! Day Type
  0,                                      ! Daylight Saving Time Indicator
  Dewpoint,                               ! Humidity Indicating Type
  ,                                       ! Humidity Indicating Day Schedule Name
  DefaultMultipliers,                     ! Dry-Bulb Temperature Range Modifier Type
  ,                                       ! Dry-Bulb Temperature Range Modifier Schedule Name
  ASHRAEClearSky;                         ! Solar Model Indicator

OS:ComponentData,
  {c1b3e841-85b1-4b86-ab07-c7135a6d4f57}, ! Handle
  Component Data 1,                       ! Name
  {f01d589e-1a89-49fb-9a6d-b6edb880c731}, ! UUID
  {884eae9d-4e1f-449d-b654-ca7187dab1ee}, ! Version UUID
  1366305663,                             ! Creation Timestamp
  1366305663,                             ! Version Timestamp
  {34f18096-394c-41a3-9988-4e80173e9b6f}; ! Name of Object 1

