
OS:Version,
  {c6f58ebd-e4df-4111-9027-d319f0189b6f}, ! Handle
  0.9.3;                                  ! Version Identifier

OS:SizingPeriod:DesignDay,
  {df1ec9f4-9c14-4e8e-89e9-daf7121e9de6}, ! Handle
  Lake Hood Seaplane Ann Clg 1% Condns DP=>MDB, ! Name
  16.8,                                   ! Maximum Dry-Bulb Temperature {C}
  6.8,                                    ! Daily Dry-Bulb Temperature Range {deltaC}
  12.9,                                   ! Humidity Indicating Conditions at Maximum Dry-Bulb {BasedOnField A3}
  101061,                                 ! Barometric Pressure {Pa}
  2.9,                                    ! Wind Speed {m/s}
  270,                                    ! Wind Direction {deg}
  0,                                      ! Sky Clearness
  0,                                      ! Rain Indicator
  0,                                      ! Snow Indicator
  21,                                     ! Day of Month
  7,                                      ! Month
  SummerDesignDay,                        ! Day Type
  0,                                      ! Daylight Saving Time Indicator
  Dewpoint,                               ! Humidity Indicating Type
  ,                                       ! Humidity Indicating Day Schedule Name
  DefaultMultipliers,                     ! Dry-Bulb Temperature Range Modifier Type
  ,                                       ! Dry-Bulb Temperature Range Modifier Schedule Name
  ASHRAETau,                              ! Solar Model Indicator
  ,                                       ! Beam Solar Day Schedule Name
  ,                                       ! Diffuse Solar Day Schedule Name
  0.388,                                  ! ASHRAE Taub {dimensionless}
  2.167;                                  ! ASHRAE Taud {dimensionless}

