
OS:Version,
  {51c415d9-b39a-4412-8890-b3d09245f9b1}, ! Handle
  0.9.3;                                  ! Version Identifier

OS:SizingPeriod:DesignDay,
  {1af66dfe-8034-4ad8-a4a1-2634dd11ae8c}, ! Handle
  Akron/Canton Ann Hum_n 99% Condns DP=>MCDB, ! Name
  -12.8,                                  ! Maximum Dry-Bulb Temperature {C}
  0,                                      ! Daily Dry-Bulb Temperature Range {deltaC}
  -17.9,                                  ! Humidity Indicating Conditions at Maximum Dry-Bulb {BasedOnField A3}
  96877,                                  ! Barometric Pressure {Pa}
  4.6,                                    ! Wind Speed {m/s}
  240,                                    ! Wind Direction {deg}
  0,                                      ! Sky Clearness
  0,                                      ! Rain Indicator
  0,                                      ! Snow Indicator
  21,                                     ! Day of Month
  1,                                      ! Month
  WinterDesignDay,                        ! Day Type
  0,                                      ! Daylight Saving Time Indicator
  Dewpoint,                               ! Humidity Indicating Type
  ,                                       ! Humidity Indicating Day Schedule Name
  DefaultMultipliers,                     ! Dry-Bulb Temperature Range Modifier Type
  ,                                       ! Dry-Bulb Temperature Range Modifier Schedule Name
  ASHRAEClearSky;                         ! Solar Model Indicator

OS:ComponentData,
  {cca6f631-02cd-4112-abf8-466dbf287524}, ! Handle
  Component Data 1,                       ! Name
  {4a2d576d-af92-4355-947f-9073e45cfb21}, ! UUID
  {9b0773c9-cfc9-472b-8a63-6ce67f1a1ebe}, ! Version UUID
  1366309765,                             ! Creation Timestamp
  1366309765,                             ! Version Timestamp
  {1af66dfe-8034-4ad8-a4a1-2634dd11ae8c}; ! Name of Object 1

