
OS:Version,
  {595f8503-24d2-4d31-af3e-3424f22c29fe}, ! Handle
  0.9.3;                                  ! Version Identifier

OS:SizingPeriod:DesignDay,
  {17aaf0f3-a708-4537-8354-b527683d25cd}, ! Handle
  Bakersfield Meadows Field Ann Clg 1% Condns WB=>MDB, ! Name
  35.3,                                   ! Maximum Dry-Bulb Temperature {C}
  14.9,                                   ! Daily Dry-Bulb Temperature Range {deltaC}
  22.4,                                   ! Humidity Indicating Conditions at Maximum Dry-Bulb {BasedOnField A3}
  99548,                                  ! Barometric Pressure {Pa}
  5.3,                                    ! Wind Speed {m/s}
  300,                                    ! Wind Direction {deg}
  0,                                      ! Sky Clearness
  0,                                      ! Rain Indicator
  0,                                      ! Snow Indicator
  21,                                     ! Day of Month
  7,                                      ! Month
  SummerDesignDay,                        ! Day Type
  0,                                      ! Daylight Saving Time Indicator
  Wetbulb,                                ! Humidity Indicating Type
  ,                                       ! Humidity Indicating Day Schedule Name
  DefaultMultipliers,                     ! Dry-Bulb Temperature Range Modifier Type
  ,                                       ! Dry-Bulb Temperature Range Modifier Schedule Name
  ASHRAETau,                              ! Solar Model Indicator
  ,                                       ! Beam Solar Day Schedule Name
  ,                                       ! Diffuse Solar Day Schedule Name
  0.438,                                  ! ASHRAE Taub {dimensionless}
  2.106;                                  ! ASHRAE Taud {dimensionless}

OS:ComponentData,
  {b20df8c0-5a58-4706-ad47-29d44caf9ab6}, ! Handle
  Component Data 1,                       ! Name
  {9d73030f-b681-49e0-8717-e913a4d02431}, ! UUID
  {cf1ee721-561e-4e32-baac-34adbfea6895}, ! Version UUID
  1366306365,                             ! Creation Timestamp
  1366306365,                             ! Version Timestamp
  {17aaf0f3-a708-4537-8354-b527683d25cd}; ! Name of Object 1

