
OS:Version,
  {6e8436a8-e7e9-411b-b85e-e746de98bb92}, ! Handle
  0.9.3;                                  ! Version Identifier

OS:SizingPeriod:DesignDay,
  {09e97112-7e7d-4ae7-acb7-7db8ee4a4e10}, ! Handle
  Fort Worth Nas Ann Clg 1% Condns Enth=>MDB, ! Name
  32.9,                                   ! Maximum Dry-Bulb Temperature {C}
  10.7,                                   ! Daily Dry-Bulb Temperature Range {deltaC}
  79900,                                  ! Humidity Indicating Conditions at Maximum Dry-Bulb {BasedOnField A3}
  99122,                                  ! Barometric Pressure {Pa}
  4,                                      ! Wind Speed {m/s}
  160,                                    ! Wind Direction {deg}
  0,                                      ! Sky Clearness
  0,                                      ! Rain Indicator
  0,                                      ! Snow Indicator
  21,                                     ! Day of Month
  7,                                      ! Month
  SummerDesignDay,                        ! Day Type
  0,                                      ! Daylight Saving Time Indicator
  Enthalpy,                               ! Humidity Indicating Type
  ,                                       ! Humidity Indicating Day Schedule Name
  DefaultMultipliers,                     ! Dry-Bulb Temperature Range Modifier Type
  ,                                       ! Dry-Bulb Temperature Range Modifier Schedule Name
  ASHRAETau,                              ! Solar Model Indicator
  ,                                       ! Beam Solar Day Schedule Name
  ,                                       ! Diffuse Solar Day Schedule Name
  0.463,                                  ! ASHRAE Taub {dimensionless}
  2.081;                                  ! ASHRAE Taud {dimensionless}

OS:ComponentData,
  {49d287b3-fa28-4d79-b255-a4b8ffb16a01}, ! Handle
  Component Data 1,                       ! Name
  {61abf759-7942-4d86-b1fd-95fea8d26da4}, ! UUID
  {349e2d07-9983-40d7-b573-9dbbffaed60c}, ! Version UUID
  1366310715,                             ! Creation Timestamp
  1366310715,                             ! Version Timestamp
  {09e97112-7e7d-4ae7-acb7-7db8ee4a4e10}; ! Name of Object 1

