
OS:Version,
  {57759e36-5e0b-462a-a641-b891af6be12e}, ! Handle
  0.9.3;                                  ! Version Identifier

OS:SizingPeriod:DesignDay,
  {509e8243-ffb3-485d-aeab-b63cb74b781d}, ! Handle
  EVANSVILLE Ann Clg 2% Condns DB=>MWB,   ! Name
  32,                                     ! Maximum Dry-Bulb Temperature {C}
  10.6,                                   ! Daily Dry-Bulb Temperature Range {deltaC}
  23.8,                                   ! Humidity Indicating Conditions at Maximum Dry-Bulb {BasedOnField A3}
  99915,                                  ! Barometric Pressure {Pa}
  3.7,                                    ! Wind Speed {m/s}
  240,                                    ! Wind Direction {deg}
  0,                                      ! Sky Clearness
  0,                                      ! Rain Indicator
  0,                                      ! Snow Indicator
  21,                                     ! Day of Month
  7,                                      ! Month
  SummerDesignDay,                        ! Day Type
  0,                                      ! Daylight Saving Time Indicator
  Wetbulb,                                ! Humidity Indicating Type
  ,                                       ! Humidity Indicating Day Schedule Name
  DefaultMultipliers,                     ! Dry-Bulb Temperature Range Modifier Type
  ,                                       ! Dry-Bulb Temperature Range Modifier Schedule Name
  ASHRAETau,                              ! Solar Model Indicator
  ,                                       ! Beam Solar Day Schedule Name
  ,                                       ! Diffuse Solar Day Schedule Name
  0.508,                                  ! ASHRAE Taub {dimensionless}
  1.881;                                  ! ASHRAE Taud {dimensionless}

OS:ComponentData,
  {208e1e67-42a4-47ef-a9e8-592ff3667248}, ! Handle
  Component Data 1,                       ! Name
  {8d18987f-264c-4046-ba29-19a9b5b60043}, ! UUID
  {cfb75772-4380-4c61-b1db-290c9bcc5a3b}, ! Version UUID
  1366307424,                             ! Creation Timestamp
  1366307424,                             ! Version Timestamp
  {509e8243-ffb3-485d-aeab-b63cb74b781d}; ! Name of Object 1

