
OS:Version,
  {3f8196bc-51e5-447b-8c65-363846c382d6}, ! Handle
  0.9.3;                                  ! Version Identifier

OS:SizingPeriod:DesignDay,
  {2a6fc355-42d3-4cae-af56-8d6714dbb285}, ! Handle
  Grand Junction Ann Clg 1% Condns DB=>MWB, ! Name
  34.9,                                   ! Maximum Dry-Bulb Temperature {C}
  15.3,                                   ! Daily Dry-Bulb Temperature Range {deltaC}
  16.1,                                   ! Humidity Indicating Conditions at Maximum Dry-Bulb {BasedOnField A3}
  84816,                                  ! Barometric Pressure {Pa}
  4.6,                                    ! Wind Speed {m/s}
  270,                                    ! Wind Direction {deg}
  0,                                      ! Sky Clearness
  0,                                      ! Rain Indicator
  0,                                      ! Snow Indicator
  21,                                     ! Day of Month
  7,                                      ! Month
  SummerDesignDay,                        ! Day Type
  0,                                      ! Daylight Saving Time Indicator
  Wetbulb,                                ! Humidity Indicating Type
  ,                                       ! Humidity Indicating Day Schedule Name
  DefaultMultipliers,                     ! Dry-Bulb Temperature Range Modifier Type
  ,                                       ! Dry-Bulb Temperature Range Modifier Schedule Name
  ASHRAETau,                              ! Solar Model Indicator
  ,                                       ! Beam Solar Day Schedule Name
  ,                                       ! Diffuse Solar Day Schedule Name
  0.41,                                   ! ASHRAE Taub {dimensionless}
  2.106;                                  ! ASHRAE Taud {dimensionless}

OS:ComponentData,
  {0bd3ce15-6ed0-4f6b-9b20-eccfa36a7026}, ! Handle
  Component Data 1,                       ! Name
  {001c1bf4-e94f-4ba2-b06e-4816b85abac4}, ! UUID
  {f2b463f0-1656-4908-8914-2d3e44a8e1fa}, ! Version UUID
  1366306696,                             ! Creation Timestamp
  1366306696,                             ! Version Timestamp
  {2a6fc355-42d3-4cae-af56-8d6714dbb285}; ! Name of Object 1

