
OS:Version,
  {548df36b-a879-49bd-999c-afda59c3d2b6}, ! Handle
  0.9.3;                                  ! Version Identifier

OS:SizingPeriod:DesignDay,
  {cdeb4e24-13a1-4d1b-a4a8-80fb236bef20}, ! Handle
  Eugene Mahlon Sweet Arpt  Uo Ann Hum_n 99% Condns DP=>MCDB, ! Name
  -2.2,                                   ! Maximum Dry-Bulb Temperature {C}
  0,                                      ! Daily Dry-Bulb Temperature Range {deltaC}
  -5.6,                                   ! Humidity Indicating Conditions at Maximum Dry-Bulb {BasedOnField A3}
  100022,                                 ! Barometric Pressure {Pa}
  3,                                      ! Wind Speed {m/s}
  0,                                      ! Wind Direction {deg}
  0,                                      ! Sky Clearness
  0,                                      ! Rain Indicator
  0,                                      ! Snow Indicator
  21,                                     ! Day of Month
  12,                                     ! Month
  WinterDesignDay,                        ! Day Type
  0,                                      ! Daylight Saving Time Indicator
  Dewpoint,                               ! Humidity Indicating Type
  ,                                       ! Humidity Indicating Day Schedule Name
  DefaultMultipliers,                     ! Dry-Bulb Temperature Range Modifier Type
  ,                                       ! Dry-Bulb Temperature Range Modifier Schedule Name
  ASHRAEClearSky;                         ! Solar Model Indicator

OS:ComponentData,
  {65e956c2-acb9-4986-9f4b-dea355534583}, ! Handle
  Component Data 1,                       ! Name
  {1d2be32b-7b96-4184-b20b-ba217efc80a0}, ! UUID
  {802cbd6a-ba6c-44c3-91ab-5c5004483670}, ! Version UUID
  1366310006,                             ! Creation Timestamp
  1366310006,                             ! Version Timestamp
  {cdeb4e24-13a1-4d1b-a4a8-80fb236bef20}; ! Name of Object 1

