
OS:Version,
  {c52b9483-165c-4745-b3f2-fe5b070c0448}, ! Handle
  0.9.3;                                  ! Version Identifier

OS:SizingPeriod:DesignDay,
  {540595b8-1309-4419-90ba-8db240161761}, ! Handle
  Lemoore Reeves Nas Ann Clg .4% Condns DP=>MDB, ! Name
  31.7,                                   ! Maximum Dry-Bulb Temperature {C}
  18.6,                                   ! Daily Dry-Bulb Temperature Range {deltaC}
  19.6,                                   ! Humidity Indicating Conditions at Maximum Dry-Bulb {BasedOnField A3}
  100451,                                 ! Barometric Pressure {Pa}
  2.8,                                    ! Wind Speed {m/s}
  0,                                      ! Wind Direction {deg}
  0,                                      ! Sky Clearness
  0,                                      ! Rain Indicator
  0,                                      ! Snow Indicator
  21,                                     ! Day of Month
  7,                                      ! Month
  SummerDesignDay,                        ! Day Type
  0,                                      ! Daylight Saving Time Indicator
  Dewpoint,                               ! Humidity Indicating Type
  ,                                       ! Humidity Indicating Day Schedule Name
  DefaultMultipliers,                     ! Dry-Bulb Temperature Range Modifier Type
  ,                                       ! Dry-Bulb Temperature Range Modifier Schedule Name
  ASHRAETau,                              ! Solar Model Indicator
  ,                                       ! Beam Solar Day Schedule Name
  ,                                       ! Diffuse Solar Day Schedule Name
  0.413,                                  ! ASHRAE Taub {dimensionless}
  2.187;                                  ! ASHRAE Taud {dimensionless}

OS:ComponentData,
  {6210ef1f-e9a3-4e81-9d30-30859969f2eb}, ! Handle
  Component Data 1,                       ! Name
  {245b9250-4e5d-4bdd-8910-f48c393d4587}, ! UUID
  {4b43de48-41d1-4c9b-b9fa-c9e277706130}, ! Version UUID
  1366306461,                             ! Creation Timestamp
  1366306461,                             ! Version Timestamp
  {540595b8-1309-4419-90ba-8db240161761}; ! Name of Object 1

