
OS:Version,
  {ef49a706-4f10-47ff-9efc-2d13d549593b}, ! Handle
  0.9.3;                                  ! Version Identifier

OS:SizingPeriod:DesignDay,
  {7cc7f9aa-043c-46a5-9a30-3461fa34d5cf}, ! Handle
  Denver Intl Ap Ann Clg 2% Condns DP=>MDB, ! Name
  19.6,                                   ! Maximum Dry-Bulb Temperature {C}
  15.2,                                   ! Daily Dry-Bulb Temperature Range {deltaC}
  14.1,                                   ! Humidity Indicating Conditions at Maximum Dry-Bulb {BasedOnField A3}
  83011,                                  ! Barometric Pressure {Pa}
  4.2,                                    ! Wind Speed {m/s}
  80,                                     ! Wind Direction {deg}
  0,                                      ! Sky Clearness
  0,                                      ! Rain Indicator
  0,                                      ! Snow Indicator
  21,                                     ! Day of Month
  7,                                      ! Month
  SummerDesignDay,                        ! Day Type
  0,                                      ! Daylight Saving Time Indicator
  Dewpoint,                               ! Humidity Indicating Type
  ,                                       ! Humidity Indicating Day Schedule Name
  DefaultMultipliers,                     ! Dry-Bulb Temperature Range Modifier Type
  ,                                       ! Dry-Bulb Temperature Range Modifier Schedule Name
  ASHRAETau,                              ! Solar Model Indicator
  ,                                       ! Beam Solar Day Schedule Name
  ,                                       ! Diffuse Solar Day Schedule Name
  0.424,                                  ! ASHRAE Taub {dimensionless}
  2.012;                                  ! ASHRAE Taud {dimensionless}

OS:ComponentData,
  {a6279771-6d52-4025-b631-e20626ce42c4}, ! Handle
  Component Data 1,                       ! Name
  {f16c1bd6-f0eb-4087-9637-14b59d2b3610}, ! UUID
  {a584deab-d71d-444a-8461-ae75aee05e14}, ! Version UUID
  1366306679,                             ! Creation Timestamp
  1366306679,                             ! Version Timestamp
  {7cc7f9aa-043c-46a5-9a30-3461fa34d5cf}; ! Name of Object 1

