
OS:Version,
  {f7e318f1-660e-4d93-9700-e72ea11c5d8a}, ! Handle
  0.9.3;                                  ! Version Identifier

OS:SizingPeriod:DesignDay,
  {4e38a197-5e65-4831-a736-721e98b879a4}, ! Handle
  Fair Field Ann Htg Wind 99% Condns WS=>MCDB, ! Name
  -5.7,                                   ! Maximum Dry-Bulb Temperature {C}
  0,                                      ! Daily Dry-Bulb Temperature Range {deltaC}
  -5.7,                                   ! Humidity Indicating Conditions at Maximum Dry-Bulb {BasedOnField A3}
  98428,                                  ! Barometric Pressure {Pa}
  12.1,                                   ! Wind Speed {m/s}
  290,                                    ! Wind Direction {deg}
  0,                                      ! Sky Clearness
  0,                                      ! Rain Indicator
  0,                                      ! Snow Indicator
  21,                                     ! Day of Month
  1,                                      ! Month
  WinterDesignDay,                        ! Day Type
  0,                                      ! Daylight Saving Time Indicator
  Wetbulb,                                ! Humidity Indicating Type
  ,                                       ! Humidity Indicating Day Schedule Name
  DefaultMultipliers,                     ! Dry-Bulb Temperature Range Modifier Type
  ,                                       ! Dry-Bulb Temperature Range Modifier Schedule Name
  ASHRAEClearSky;                         ! Solar Model Indicator

OS:ComponentData,
  {8f82e5c3-3162-4119-b773-522d8c15a971}, ! Handle
  Component Data 1,                       ! Name
  {6f3de3bb-b5f7-4cbb-9a18-a4dfcb6ab6c0}, ! UUID
  {b81cec49-583e-4498-a1b4-e751edb60ead}, ! Version UUID
  1366307192,                             ! Creation Timestamp
  1366307192,                             ! Version Timestamp
  {4e38a197-5e65-4831-a736-721e98b879a4}; ! Name of Object 1

