
OS:Version,
  {ef9620b8-586d-480a-a1a9-a19cb00d2d6a}, ! Handle
  0.9.3;                                  ! Version Identifier

OS:SizingPeriod:DesignDay,
  {72897984-b16e-40e6-a463-a4e71c521aa0}, ! Handle
  ALAMOSA Ann Clg 2% Condns DP=>MDB,      ! Name
  16.6,                                   ! Maximum Dry-Bulb Temperature {C}
  18.7,                                   ! Daily Dry-Bulb Temperature Range {deltaC}
  11.3,                                   ! Humidity Indicating Conditions at Maximum Dry-Bulb {BasedOnField A3}
  76607,                                  ! Barometric Pressure {Pa}
  5,                                      ! Wind Speed {m/s}
  240,                                    ! Wind Direction {deg}
  0,                                      ! Sky Clearness
  0,                                      ! Rain Indicator
  0,                                      ! Snow Indicator
  21,                                     ! Day of Month
  7,                                      ! Month
  SummerDesignDay,                        ! Day Type
  0,                                      ! Daylight Saving Time Indicator
  Dewpoint,                               ! Humidity Indicating Type
  ,                                       ! Humidity Indicating Day Schedule Name
  DefaultMultipliers,                     ! Dry-Bulb Temperature Range Modifier Type
  ,                                       ! Dry-Bulb Temperature Range Modifier Schedule Name
  ASHRAETau,                              ! Solar Model Indicator
  ,                                       ! Beam Solar Day Schedule Name
  ,                                       ! Diffuse Solar Day Schedule Name
  0.422,                                  ! ASHRAE Taub {dimensionless}
  2;                                      ! ASHRAE Taud {dimensionless}

OS:ComponentData,
  {02a859ac-074b-4743-a9ed-466867aa5ccd}, ! Handle
  Component Data 1,                       ! Name
  {44f35b04-542c-46de-b74d-a145133aee02}, ! UUID
  {ab510d55-5052-442b-a7d6-ed1af8ab2140}, ! Version UUID
  1366306639,                             ! Creation Timestamp
  1366306639,                             ! Version Timestamp
  {72897984-b16e-40e6-a463-a4e71c521aa0}; ! Name of Object 1

