
OS:Version,
  {644d36b8-177c-4353-b624-3a28df6e9105}, ! Handle
  0.9.3;                                  ! Version Identifier

OS:SizingPeriod:DesignDay,
  {a1ac0875-8f69-4c9b-ac59-24e31788d3f6}, ! Handle
  Ely Ann Htg 99.6% Condns DB,            ! Name
  -20.1,                                  ! Maximum Dry-Bulb Temperature {C}
  0,                                      ! Daily Dry-Bulb Temperature Range {deltaC}
  -20.1,                                  ! Humidity Indicating Conditions at Maximum Dry-Bulb {BasedOnField A3}
  80397,                                  ! Barometric Pressure {Pa}
  5,                                      ! Wind Speed {m/s}
  180,                                    ! Wind Direction {deg}
  0,                                      ! Sky Clearness
  0,                                      ! Rain Indicator
  0,                                      ! Snow Indicator
  21,                                     ! Day of Month
  12,                                     ! Month
  WinterDesignDay,                        ! Day Type
  0,                                      ! Daylight Saving Time Indicator
  Wetbulb,                                ! Humidity Indicating Type
  ,                                       ! Humidity Indicating Day Schedule Name
  DefaultMultipliers,                     ! Dry-Bulb Temperature Range Modifier Type
  ,                                       ! Dry-Bulb Temperature Range Modifier Schedule Name
  ASHRAEClearSky;                         ! Solar Model Indicator

OS:ComponentData,
  {eaffebda-7d00-4a2b-9000-c8e75c7f42d9}, ! Handle
  Component Data 1,                       ! Name
  {a82a7ade-4d61-4060-96a7-e3ff47003d2c}, ! UUID
  {f95fd319-2f93-4516-b785-aa4fa8598e8b}, ! Version UUID
  1366309470,                             ! Creation Timestamp
  1366309470,                             ! Version Timestamp
  {a1ac0875-8f69-4c9b-ac59-24e31788d3f6}; ! Name of Object 1

