
OS:Version,
  {b13ea319-2eb3-4323-9dc9-e4fe04707785}, ! Handle
  0.9.3;                                  ! Version Identifier

OS:SizingPeriod:DesignDay,
  {b1c14dd1-3597-48d8-a804-2778c94302f2}, ! Handle
  DAYTON Ann Hum_n 99.6% Condns DP=>MCDB, ! Name
  -16.2,                                  ! Maximum Dry-Bulb Temperature {C}
  0,                                      ! Daily Dry-Bulb Temperature Range {deltaC}
  -20.3,                                  ! Humidity Indicating Conditions at Maximum Dry-Bulb {BasedOnField A3}
  97703,                                  ! Barometric Pressure {Pa}
  3.3,                                    ! Wind Speed {m/s}
  260,                                    ! Wind Direction {deg}
  0,                                      ! Sky Clearness
  0,                                      ! Rain Indicator
  0,                                      ! Snow Indicator
  21,                                     ! Day of Month
  1,                                      ! Month
  WinterDesignDay,                        ! Day Type
  0,                                      ! Daylight Saving Time Indicator
  Dewpoint,                               ! Humidity Indicating Type
  ,                                       ! Humidity Indicating Day Schedule Name
  DefaultMultipliers,                     ! Dry-Bulb Temperature Range Modifier Type
  ,                                       ! Dry-Bulb Temperature Range Modifier Schedule Name
  ASHRAEClearSky;                         ! Solar Model Indicator

OS:ComponentData,
  {8875910a-7a8a-4ec6-9202-d253b9210400}, ! Handle
  Component Data 1,                       ! Name
  {57a995ea-754b-4024-bdfb-4c73875d388a}, ! UUID
  {032bba00-1288-4bbb-b80e-02ca49e2148c}, ! Version UUID
  1366309816,                             ! Creation Timestamp
  1366309816,                             ! Version Timestamp
  {b1c14dd1-3597-48d8-a804-2778c94302f2}; ! Name of Object 1

