
OS:Version,
  {b6ae7f63-1070-45e4-b891-a7a54e4d93eb}, ! Handle
  0.9.3;                                  ! Version Identifier

OS:SizingPeriod:DesignDay,
  {deb0feba-fcf9-49f9-8a77-c7f4a4ec1e07}, ! Handle
  Cortez Montezuma Co Ann Hum_n 99% Condns DP=>MCDB, ! Name
  -6.7,                                   ! Maximum Dry-Bulb Temperature {C}
  0,                                      ! Daily Dry-Bulb Temperature Range {deltaC}
  -17.9,                                  ! Humidity Indicating Conditions at Maximum Dry-Bulb {BasedOnField A3}
  81459,                                  ! Barometric Pressure {Pa}
  2.3,                                    ! Wind Speed {m/s}
  60,                                     ! Wind Direction {deg}
  0,                                      ! Sky Clearness
  0,                                      ! Rain Indicator
  0,                                      ! Snow Indicator
  21,                                     ! Day of Month
  12,                                     ! Month
  WinterDesignDay,                        ! Day Type
  0,                                      ! Daylight Saving Time Indicator
  Dewpoint,                               ! Humidity Indicating Type
  ,                                       ! Humidity Indicating Day Schedule Name
  DefaultMultipliers,                     ! Dry-Bulb Temperature Range Modifier Type
  ,                                       ! Dry-Bulb Temperature Range Modifier Schedule Name
  ASHRAEClearSky;                         ! Solar Model Indicator

OS:ComponentData,
  {f9a8edb7-b4a4-45ad-8ee4-d3bdc7164424}, ! Handle
  Component Data 1,                       ! Name
  {a2d41d9d-4858-4a3e-a96c-bef622d922a8}, ! UUID
  {1c8a08ef-b9d9-47d7-866b-137f5e2f61bb}, ! Version UUID
  1366306668,                             ! Creation Timestamp
  1366306668,                             ! Version Timestamp
  {deb0feba-fcf9-49f9-8a77-c7f4a4ec1e07}; ! Name of Object 1

