
OS:Version,
  {bebe00f6-6646-486a-a093-7df07f384f49}, ! Handle
  0.9.3;                                  ! Version Identifier

OS:SizingPeriod:DesignDay,
  {33f00bb3-6b6d-46ce-9f40-575b6b4e189c}, ! Handle
  Goldsboro Seymour Johnson Afb Ann Clg 2% Condns Enth=>MDB, ! Name
  30.7,                                   ! Maximum Dry-Bulb Temperature {C}
  10,                                     ! Daily Dry-Bulb Temperature Range {deltaC}
  77500,                                  ! Humidity Indicating Conditions at Maximum Dry-Bulb {BasedOnField A3}
  100929,                                 ! Barometric Pressure {Pa}
  3.5,                                    ! Wind Speed {m/s}
  230,                                    ! Wind Direction {deg}
  0,                                      ! Sky Clearness
  0,                                      ! Rain Indicator
  0,                                      ! Snow Indicator
  21,                                     ! Day of Month
  7,                                      ! Month
  SummerDesignDay,                        ! Day Type
  0,                                      ! Daylight Saving Time Indicator
  Enthalpy,                               ! Humidity Indicating Type
  ,                                       ! Humidity Indicating Day Schedule Name
  DefaultMultipliers,                     ! Dry-Bulb Temperature Range Modifier Type
  ,                                       ! Dry-Bulb Temperature Range Modifier Schedule Name
  ASHRAETau,                              ! Solar Model Indicator
  ,                                       ! Beam Solar Day Schedule Name
  ,                                       ! Diffuse Solar Day Schedule Name
  0.598,                                  ! ASHRAE Taub {dimensionless}
  1.681;                                  ! ASHRAE Taud {dimensionless}

OS:ComponentData,
  {39d4bebf-c3db-4db9-b03b-ffe45e5c3ef3}, ! Handle
  Component Data 1,                       ! Name
  {53189d18-5c82-4615-91ff-d17367c2f02b}, ! UUID
  {fd9d4c69-6bff-4bdd-a34f-e1caba9b9428}, ! Version UUID
  1366308925,                             ! Creation Timestamp
  1366308925,                             ! Version Timestamp
  {33f00bb3-6b6d-46ce-9f40-575b6b4e189c}; ! Name of Object 1

