
OS:Version,
  {cc42e6cb-1dd4-474a-9f14-365431cb438b}, ! Handle
  0.9.3;                                  ! Version Identifier

OS:SizingPeriod:DesignDay,
  {e6215a6f-3bda-4df0-b699-f12f3801e23c}, ! Handle
  Kake Seaplane Base Ann Htg Wind 99.6% Condns WS=>MCDB, ! Name
  3.8,                                    ! Maximum Dry-Bulb Temperature {C}
  0,                                      ! Daily Dry-Bulb Temperature Range {deltaC}
  3.8,                                    ! Humidity Indicating Conditions at Maximum Dry-Bulb {BasedOnField A3}
  101325,                                 ! Barometric Pressure {Pa}
  10.4,                                   ! Wind Speed {m/s}
  70,                                     ! Wind Direction {deg}
  0,                                      ! Sky Clearness
  0,                                      ! Rain Indicator
  0,                                      ! Snow Indicator
  21,                                     ! Day of Month
  1,                                      ! Month
  WinterDesignDay,                        ! Day Type
  0,                                      ! Daylight Saving Time Indicator
  Wetbulb,                                ! Humidity Indicating Type
  ,                                       ! Humidity Indicating Day Schedule Name
  DefaultMultipliers,                     ! Dry-Bulb Temperature Range Modifier Type
  ,                                       ! Dry-Bulb Temperature Range Modifier Schedule Name
  ASHRAEClearSky;                         ! Solar Model Indicator

OS:ComponentData,
  {aa4714c6-8df4-4d72-94fe-02156ddbfc2b}, ! Handle
  Component Data 1,                       ! Name
  {ca5eea5b-8b1c-4cd2-a9b6-b7704b17761d}, ! UUID
  {25479828-82e4-4241-b33a-d6804b8463df}, ! Version UUID
  1366305340,                             ! Creation Timestamp
  1366305340,                             ! Version Timestamp
  {e6215a6f-3bda-4df0-b699-f12f3801e23c}; ! Name of Object 1

