
OS:Version,
  {bb107eb3-bf2e-4471-a337-2e771b6a1422}, ! Handle
  0.9.3;                                  ! Version Identifier

OS:SizingPeriod:DesignDay,
  {522c842a-bd87-48bd-a469-16d18981d8a2}, ! Handle
  Benson Muni Ann Hum_n 99.6% Condns DP=>MCDB, ! Name
  -25.1,                                  ! Maximum Dry-Bulb Temperature {C}
  0,                                      ! Daily Dry-Bulb Temperature Range {deltaC}
  -31.3,                                  ! Humidity Indicating Conditions at Maximum Dry-Bulb {BasedOnField A3}
  97574,                                  ! Barometric Pressure {Pa}
  2.7,                                    ! Wind Speed {m/s}
  300,                                    ! Wind Direction {deg}
  0,                                      ! Sky Clearness
  0,                                      ! Rain Indicator
  0,                                      ! Snow Indicator
  21,                                     ! Day of Month
  1,                                      ! Month
  WinterDesignDay,                        ! Day Type
  0,                                      ! Daylight Saving Time Indicator
  Dewpoint,                               ! Humidity Indicating Type
  ,                                       ! Humidity Indicating Day Schedule Name
  DefaultMultipliers,                     ! Dry-Bulb Temperature Range Modifier Type
  ,                                       ! Dry-Bulb Temperature Range Modifier Schedule Name
  ASHRAEClearSky;                         ! Solar Model Indicator

OS:ComponentData,
  {c22f42a3-8316-4db4-8a08-ba5d5c10d273}, ! Handle
  Component Data 1,                       ! Name
  {8c2dd60d-d173-4bb0-950f-b9181ec46cf0}, ! UUID
  {68824d21-2c5e-47f4-897d-d480f1e943af}, ! Version UUID
  1366308163,                             ! Creation Timestamp
  1366308163,                             ! Version Timestamp
  {522c842a-bd87-48bd-a469-16d18981d8a2}; ! Name of Object 1

