
OS:Version,
  {4ef9c8e8-1887-4c70-8ecc-9e749f999077}, ! Handle
  0.9.3;                                  ! Version Identifier

OS:SizingPeriod:DesignDay,
  {669f2323-8b88-43dd-b979-4dc136b2fb23}, ! Handle
  Fort Yukon Ann Clg 1% Condns DP=>MDB,   ! Name
  18.3,                                   ! Maximum Dry-Bulb Temperature {C}
  10.2,                                   ! Daily Dry-Bulb Temperature Range {deltaC}
  12.6,                                   ! Humidity Indicating Conditions at Maximum Dry-Bulb {BasedOnField A3}
  99702,                                  ! Barometric Pressure {Pa}
  2.8,                                    ! Wind Speed {m/s}
  60,                                     ! Wind Direction {deg}
  0,                                      ! Sky Clearness
  0,                                      ! Rain Indicator
  0,                                      ! Snow Indicator
  21,                                     ! Day of Month
  7,                                      ! Month
  SummerDesignDay,                        ! Day Type
  0,                                      ! Daylight Saving Time Indicator
  Dewpoint,                               ! Humidity Indicating Type
  ,                                       ! Humidity Indicating Day Schedule Name
  DefaultMultipliers,                     ! Dry-Bulb Temperature Range Modifier Type
  ,                                       ! Dry-Bulb Temperature Range Modifier Schedule Name
  ASHRAETau,                              ! Solar Model Indicator
  ,                                       ! Beam Solar Day Schedule Name
  ,                                       ! Diffuse Solar Day Schedule Name
  0.412,                                  ! ASHRAE Taub {dimensionless}
  2.049;                                  ! ASHRAE Taud {dimensionless}

OS:ComponentData,
  {a98c85f3-c425-43c9-a6fd-08815eaa38e3}, ! Handle
  Component Data 1,                       ! Name
  {96df7ad5-ca7f-4df9-bdf3-1eb26a07dfd6}, ! UUID
  {84ddbe48-bbcc-49ea-bc79-69e431de032a}, ! Version UUID
  1366305279,                             ! Creation Timestamp
  1366305279,                             ! Version Timestamp
  {669f2323-8b88-43dd-b979-4dc136b2fb23}; ! Name of Object 1

