
OS:Version,
  {7033f474-1fcb-4962-865f-132aff01c2c0}, ! Handle
  0.9.3;                                  ! Version Identifier

OS:SizingPeriod:DesignDay,
  {b8e4e4ab-b087-4b9f-85ea-b9e847e89180}, ! Handle
  Chariton Ann Clg 1% Condns WB=>MDB,     ! Name
  31.3,                                   ! Maximum Dry-Bulb Temperature {C}
  10.3,                                   ! Daily Dry-Bulb Temperature Range {deltaC}
  26.4,                                   ! Humidity Indicating Conditions at Maximum Dry-Bulb {BasedOnField A3}
  97539,                                  ! Barometric Pressure {Pa}
  4.5,                                    ! Wind Speed {m/s}
  200,                                    ! Wind Direction {deg}
  0,                                      ! Sky Clearness
  0,                                      ! Rain Indicator
  0,                                      ! Snow Indicator
  21,                                     ! Day of Month
  7,                                      ! Month
  SummerDesignDay,                        ! Day Type
  0,                                      ! Daylight Saving Time Indicator
  Wetbulb,                                ! Humidity Indicating Type
  ,                                       ! Humidity Indicating Day Schedule Name
  DefaultMultipliers,                     ! Dry-Bulb Temperature Range Modifier Type
  ,                                       ! Dry-Bulb Temperature Range Modifier Schedule Name
  ASHRAETau,                              ! Solar Model Indicator
  ,                                       ! Beam Solar Day Schedule Name
  ,                                       ! Diffuse Solar Day Schedule Name
  0.431,                                  ! ASHRAE Taub {dimensionless}
  2.145;                                  ! ASHRAE Taud {dimensionless}

OS:ComponentData,
  {69c67d4c-e434-4b03-a5f3-a813cad5f75f}, ! Handle
  Component Data 1,                       ! Name
  {581c57db-ef97-498c-a49d-04910b21adea}, ! UUID
  {2b9eb684-0fce-4d2c-bc18-574edc96cc35}, ! Version UUID
  1366307152,                             ! Creation Timestamp
  1366307152,                             ! Version Timestamp
  {b8e4e4ab-b087-4b9f-85ea-b9e847e89180}; ! Name of Object 1

