
OS:Version,
  {82e8e13a-130b-4046-9e8f-1fb07a4b97e5}, ! Handle
  0.9.3;                                  ! Version Identifier

OS:SizingPeriod:DesignDay,
  {5058ac51-c674-494d-86aa-41be888e5224}, ! Handle
  Amarillo International Ap  Ca Ann Htg Wind 99.6% Condns WS=>MCDB, ! Name
  8.4,                                    ! Maximum Dry-Bulb Temperature {C}
  0,                                      ! Daily Dry-Bulb Temperature Range {deltaC}
  8.4,                                    ! Humidity Indicating Conditions at Maximum Dry-Bulb {BasedOnField A3}
  89136,                                  ! Barometric Pressure {Pa}
  13.9,                                   ! Wind Speed {m/s}
  20,                                     ! Wind Direction {deg}
  0,                                      ! Sky Clearness
  0,                                      ! Rain Indicator
  0,                                      ! Snow Indicator
  21,                                     ! Day of Month
  12,                                     ! Month
  WinterDesignDay,                        ! Day Type
  0,                                      ! Daylight Saving Time Indicator
  Wetbulb,                                ! Humidity Indicating Type
  ,                                       ! Humidity Indicating Day Schedule Name
  DefaultMultipliers,                     ! Dry-Bulb Temperature Range Modifier Type
  ,                                       ! Dry-Bulb Temperature Range Modifier Schedule Name
  ASHRAEClearSky;                         ! Solar Model Indicator

OS:ComponentData,
  {e7f8bc9a-17bf-4c02-905d-fdb5c1348948}, ! Handle
  Component Data 1,                       ! Name
  {b9da36dc-29f9-4695-8a67-b0ebb3191d93}, ! UUID
  {7f3e6ff9-ed6a-46b6-8544-b645bb713f92}, ! Version UUID
  1366310573,                             ! Creation Timestamp
  1366310573,                             ! Version Timestamp
  {5058ac51-c674-494d-86aa-41be888e5224}; ! Name of Object 1

