
OS:Version,
  {08dcf0b2-ead5-43a6-a0e0-b72f1c82987a}, ! Handle
  0.9.3;                                  ! Version Identifier

OS:SizingPeriod:DesignDay,
  {0bda8ebf-886e-4204-92af-5f696e03322c}, ! Handle
  Augusta Airport Ann Clg 1% Condns DP=>MDB, ! Name
  24.2,                                   ! Maximum Dry-Bulb Temperature {C}
  10.1,                                   ! Daily Dry-Bulb Temperature Range {deltaC}
  20.5,                                   ! Humidity Indicating Conditions at Maximum Dry-Bulb {BasedOnField A3}
  100046,                                 ! Barometric Pressure {Pa}
  4.6,                                    ! Wind Speed {m/s}
  240,                                    ! Wind Direction {deg}
  0,                                      ! Sky Clearness
  0,                                      ! Rain Indicator
  0,                                      ! Snow Indicator
  21,                                     ! Day of Month
  7,                                      ! Month
  SummerDesignDay,                        ! Day Type
  0,                                      ! Daylight Saving Time Indicator
  Dewpoint,                               ! Humidity Indicating Type
  ,                                       ! Humidity Indicating Day Schedule Name
  DefaultMultipliers,                     ! Dry-Bulb Temperature Range Modifier Type
  ,                                       ! Dry-Bulb Temperature Range Modifier Schedule Name
  ASHRAETau,                              ! Solar Model Indicator
  ,                                       ! Beam Solar Day Schedule Name
  ,                                       ! Diffuse Solar Day Schedule Name
  0.458,                                  ! ASHRAE Taub {dimensionless}
  2.009;                                  ! ASHRAE Taud {dimensionless}

OS:ComponentData,
  {ea599fee-2ae3-4aba-adba-e477b3e88598}, ! Handle
  Component Data 1,                       ! Name
  {77f95ff3-d4e5-46b4-b558-754a3d481475}, ! UUID
  {13733a83-8a40-486d-ba8b-6b6f5c89c41b}, ! Version UUID
  1366307869,                             ! Creation Timestamp
  1366307869,                             ! Version Timestamp
  {0bda8ebf-886e-4204-92af-5f696e03322c}; ! Name of Object 1

