
OS:Version,
  {0818c8ed-7c2a-4188-ba0c-33629fdad38d}, ! Handle
  0.9.3;                                  ! Version Identifier

OS:SizingPeriod:DesignDay,
  {15ae1043-6098-4476-a075-db4b71318cfb}, ! Handle
  HUNTSVILLE Ann Htg Wind 99% Condns WS=>MCDB, ! Name
  6.6,                                    ! Maximum Dry-Bulb Temperature {C}
  0,                                      ! Daily Dry-Bulb Temperature Range {deltaC}
  6.6,                                    ! Humidity Indicating Conditions at Maximum Dry-Bulb {BasedOnField A3}
  99063,                                  ! Barometric Pressure {Pa}
  10.7,                                   ! Wind Speed {m/s}
  340,                                    ! Wind Direction {deg}
  0,                                      ! Sky Clearness
  0,                                      ! Rain Indicator
  0,                                      ! Snow Indicator
  21,                                     ! Day of Month
  1,                                      ! Month
  WinterDesignDay,                        ! Day Type
  0,                                      ! Daylight Saving Time Indicator
  Wetbulb,                                ! Humidity Indicating Type
  ,                                       ! Humidity Indicating Day Schedule Name
  DefaultMultipliers,                     ! Dry-Bulb Temperature Range Modifier Type
  ,                                       ! Dry-Bulb Temperature Range Modifier Schedule Name
  ASHRAEClearSky;                         ! Solar Model Indicator

OS:ComponentData,
  {526c94bc-dab1-4ba2-9931-6edce9f57d36}, ! Handle
  Component Data 1,                       ! Name
  {67818f37-608d-4884-a9ac-1818ba06f2e8}, ! UUID
  {c4ede8a6-1770-4c55-96d5-6641c276cfd9}, ! Version UUID
  1366305666,                             ! Creation Timestamp
  1366305666,                             ! Version Timestamp
  {15ae1043-6098-4476-a075-db4b71318cfb}; ! Name of Object 1

