
OS:Version,
  {1919edfb-e809-4e5f-9ba9-c9e79fd1ac66}, ! Handle
  0.9.3;                                  ! Version Identifier

OS:SizingPeriod:DesignDay,
  {304689ab-becc-43ac-8c65-78b241017db2}, ! Handle
  Grand Junction Ann Htg Wind 99% Condns WS=>MCDB, ! Name
  1.3,                                    ! Maximum Dry-Bulb Temperature {C}
  0,                                      ! Daily Dry-Bulb Temperature Range {deltaC}
  1.3,                                    ! Humidity Indicating Conditions at Maximum Dry-Bulb {BasedOnField A3}
  84816,                                  ! Barometric Pressure {Pa}
  7.6,                                    ! Wind Speed {m/s}
  120,                                    ! Wind Direction {deg}
  0,                                      ! Sky Clearness
  0,                                      ! Rain Indicator
  0,                                      ! Snow Indicator
  21,                                     ! Day of Month
  1,                                      ! Month
  WinterDesignDay,                        ! Day Type
  0,                                      ! Daylight Saving Time Indicator
  Wetbulb,                                ! Humidity Indicating Type
  ,                                       ! Humidity Indicating Day Schedule Name
  DefaultMultipliers,                     ! Dry-Bulb Temperature Range Modifier Type
  ,                                       ! Dry-Bulb Temperature Range Modifier Schedule Name
  ASHRAEClearSky;                         ! Solar Model Indicator

OS:ComponentData,
  {8da9f6c0-1717-470d-ac11-ccee58c3eb7e}, ! Handle
  Component Data 1,                       ! Name
  {a1aee147-9d37-40bb-9193-76af603247e4}, ! UUID
  {eac2c688-826a-4743-8338-432ef6d61f74}, ! Version UUID
  1366306696,                             ! Creation Timestamp
  1366306696,                             ! Version Timestamp
  {304689ab-becc-43ac-8c65-78b241017db2}; ! Name of Object 1

