
OS:Version,
  {b935fecd-a24a-4046-b74e-c47f194b19d2}, ! Handle
  0.9.3;                                  ! Version Identifier

OS:SizingPeriod:DesignDay,
  {277690ae-598b-4004-8277-be4dd28d0c29}, ! Handle
  Block Island State Arpt Ann Hum_n 99% Condns DP=>MCDB, ! Name
  -7.6,                                   ! Maximum Dry-Bulb Temperature {C}
  0,                                      ! Daily Dry-Bulb Temperature Range {deltaC}
  -18.9,                                  ! Humidity Indicating Conditions at Maximum Dry-Bulb {BasedOnField A3}
  100917,                                 ! Barometric Pressure {Pa}
  6.3,                                    ! Wind Speed {m/s}
  310,                                    ! Wind Direction {deg}
  0,                                      ! Sky Clearness
  0,                                      ! Rain Indicator
  0,                                      ! Snow Indicator
  21,                                     ! Day of Month
  1,                                      ! Month
  WinterDesignDay,                        ! Day Type
  0,                                      ! Daylight Saving Time Indicator
  Dewpoint,                               ! Humidity Indicating Type
  ,                                       ! Humidity Indicating Day Schedule Name
  DefaultMultipliers,                     ! Dry-Bulb Temperature Range Modifier Type
  ,                                       ! Dry-Bulb Temperature Range Modifier Schedule Name
  ASHRAEClearSky;                         ! Solar Model Indicator

OS:ComponentData,
  {04a6a044-6369-4e63-85a8-3c535b6f0cf6}, ! Handle
  Component Data 1,                       ! Name
  {eda5fb78-f3d9-4ab7-8cb4-3a730e1b3aab}, ! UUID
  {f0401496-1f35-4e37-88f3-8adfd493acb4}, ! Version UUID
  1366310288,                             ! Creation Timestamp
  1366310288,                             ! Version Timestamp
  {277690ae-598b-4004-8277-be4dd28d0c29}; ! Name of Object 1

