
OS:Version,
  {adb2d030-7b67-4e67-8336-06a631993b73}, ! Handle
  0.9.3;                                  ! Version Identifier

OS:SizingPeriod:DesignDay,
  {4edba3a7-2dd2-4e09-9c84-f4869b4192f9}, ! Handle
  Chattanooga Lovell Field Ap Ann Clg 2% Condns Enth=>MDB, ! Name
  30,                                     ! Maximum Dry-Bulb Temperature {C}
  10.6,                                   ! Daily Dry-Bulb Temperature Range {deltaC}
  74400,                                  ! Humidity Indicating Conditions at Maximum Dry-Bulb {BasedOnField A3}
  98898,                                  ! Barometric Pressure {Pa}
  3.2,                                    ! Wind Speed {m/s}
  280,                                    ! Wind Direction {deg}
  0,                                      ! Sky Clearness
  0,                                      ! Rain Indicator
  0,                                      ! Snow Indicator
  21,                                     ! Day of Month
  7,                                      ! Month
  SummerDesignDay,                        ! Day Type
  0,                                      ! Daylight Saving Time Indicator
  Enthalpy,                               ! Humidity Indicating Type
  ,                                       ! Humidity Indicating Day Schedule Name
  DefaultMultipliers,                     ! Dry-Bulb Temperature Range Modifier Type
  ,                                       ! Dry-Bulb Temperature Range Modifier Schedule Name
  ASHRAETau,                              ! Solar Model Indicator
  ,                                       ! Beam Solar Day Schedule Name
  ,                                       ! Diffuse Solar Day Schedule Name
  0.562,                                  ! ASHRAE Taub {dimensionless}
  1.761;                                  ! ASHRAE Taud {dimensionless}

OS:ComponentData,
  {41574a35-2d8d-413f-99a1-c20cf50a072a}, ! Handle
  Component Data 1,                       ! Name
  {0a82e323-8f55-477c-9d3b-1db250cfa4d5}, ! UUID
  {5e61db6a-36e2-4a0e-bf68-a66d6bdd3d6c}, ! Version UUID
  1366310490,                             ! Creation Timestamp
  1366310490,                             ! Version Timestamp
  {4edba3a7-2dd2-4e09-9c84-f4869b4192f9}; ! Name of Object 1

