
OS:Version,
  {a102479e-1497-49fb-bf0a-d390310337cf}, ! Handle
  0.9.3;                                  ! Version Identifier

OS:SizingPeriod:DesignDay,
  {062c98a1-71af-4a2c-a88c-f3fbf78657c4}, ! Handle
  LOUISVILLE Ann Htg Wind 99.6% Condns WS=>MCDB, ! Name
  4.3,                                    ! Maximum Dry-Bulb Temperature {C}
  0,                                      ! Daily Dry-Bulb Temperature Range {deltaC}
  4.3,                                    ! Humidity Indicating Conditions at Maximum Dry-Bulb {BasedOnField A3}
  99548,                                  ! Barometric Pressure {Pa}
  11.5,                                   ! Wind Speed {m/s}
  270,                                    ! Wind Direction {deg}
  0,                                      ! Sky Clearness
  0,                                      ! Rain Indicator
  0,                                      ! Snow Indicator
  21,                                     ! Day of Month
  1,                                      ! Month
  WinterDesignDay,                        ! Day Type
  0,                                      ! Daylight Saving Time Indicator
  Wetbulb,                                ! Humidity Indicating Type
  ,                                       ! Humidity Indicating Day Schedule Name
  DefaultMultipliers,                     ! Dry-Bulb Temperature Range Modifier Type
  ,                                       ! Dry-Bulb Temperature Range Modifier Schedule Name
  ASHRAEClearSky;                         ! Solar Model Indicator

OS:ComponentData,
  {3698b37c-1869-45fd-af98-ca20a40e6fe1}, ! Handle
  Component Data 1,                       ! Name
  {c48bdb2b-49ae-4a1e-a168-a19d00f407b3}, ! UUID
  {d982e3b3-b709-4bca-8287-bdd6bc32cc09}, ! Version UUID
  1366307674,                             ! Creation Timestamp
  1366307674,                             ! Version Timestamp
  {062c98a1-71af-4a2c-a88c-f3fbf78657c4}; ! Name of Object 1

