
OS:Version,
  {681d9337-163d-4a06-9c65-6abe9bf01a21}, ! Handle
  0.9.3;                                  ! Version Identifier

OS:SizingPeriod:DesignDay,
  {048a3871-4883-4322-8c85-17c8aa0c04f9}, ! Handle
  Blythe Riverside Co Arpt Ann Clg 1% Condns Enth=>MDB, ! Name
  37.2,                                   ! Maximum Dry-Bulb Temperature {C}
  14.6,                                   ! Daily Dry-Bulb Temperature Range {deltaC}
  77500,                                  ! Humidity Indicating Conditions at Maximum Dry-Bulb {BasedOnField A3}
  99904,                                  ! Barometric Pressure {Pa}
  4.8,                                    ! Wind Speed {m/s}
  170,                                    ! Wind Direction {deg}
  0,                                      ! Sky Clearness
  0,                                      ! Rain Indicator
  0,                                      ! Snow Indicator
  21,                                     ! Day of Month
  7,                                      ! Month
  SummerDesignDay,                        ! Day Type
  0,                                      ! Daylight Saving Time Indicator
  Enthalpy,                               ! Humidity Indicating Type
  ,                                       ! Humidity Indicating Day Schedule Name
  DefaultMultipliers,                     ! Dry-Bulb Temperature Range Modifier Type
  ,                                       ! Dry-Bulb Temperature Range Modifier Schedule Name
  ASHRAETau,                              ! Solar Model Indicator
  ,                                       ! Beam Solar Day Schedule Name
  ,                                       ! Diffuse Solar Day Schedule Name
  0.56,                                   ! ASHRAE Taub {dimensionless}
  1.707;                                  ! ASHRAE Taud {dimensionless}

OS:ComponentData,
  {45f5ad30-a19b-435c-8d17-4f1494bff20e}, ! Handle
  Component Data 1,                       ! Name
  {d3989f23-26f9-47a1-82da-20ad76b52111}, ! UUID
  {8ad95314-e93b-4de1-b453-e07cbb166906}, ! Version UUID
  1366306391,                             ! Creation Timestamp
  1366306391,                             ! Version Timestamp
  {048a3871-4883-4322-8c85-17c8aa0c04f9}; ! Name of Object 1

