
OS:Version,
  {6dd90bc6-688d-4828-b1d3-2e6765362cd4}, ! Handle
  0.9.3;                                  ! Version Identifier

OS:SizingPeriod:DesignDay,
  {fc2bd58d-d8ce-44fc-9d40-b09ed625f97b}, ! Handle
  JACKSONVILLE Ann Clg 2% Condns WB=>MDB, ! Name
  30.6,                                   ! Maximum Dry-Bulb Temperature {C}
  10,                                     ! Daily Dry-Bulb Temperature Range {deltaC}
  25.8,                                   ! Humidity Indicating Conditions at Maximum Dry-Bulb {BasedOnField A3}
  101217,                                 ! Barometric Pressure {Pa}
  3.6,                                    ! Wind Speed {m/s}
  260,                                    ! Wind Direction {deg}
  0,                                      ! Sky Clearness
  0,                                      ! Rain Indicator
  0,                                      ! Snow Indicator
  21,                                     ! Day of Month
  7,                                      ! Month
  SummerDesignDay,                        ! Day Type
  0,                                      ! Daylight Saving Time Indicator
  Wetbulb,                                ! Humidity Indicating Type
  ,                                       ! Humidity Indicating Day Schedule Name
  DefaultMultipliers,                     ! Dry-Bulb Temperature Range Modifier Type
  ,                                       ! Dry-Bulb Temperature Range Modifier Schedule Name
  ASHRAETau,                              ! Solar Model Indicator
  ,                                       ! Beam Solar Day Schedule Name
  ,                                       ! Diffuse Solar Day Schedule Name
  0.541,                                  ! ASHRAE Taub {dimensionless}
  1.863;                                  ! ASHRAE Taud {dimensionless}

OS:ComponentData,
  {cc080f9b-13d4-4281-b0ce-e06960203a13}, ! Handle
  Component Data 1,                       ! Name
  {59776004-e754-4a2a-b7a5-d588385389b4}, ! UUID
  {a01c038f-6fc4-4e0d-b2da-8cd642e1300d}, ! Version UUID
  1366306817,                             ! Creation Timestamp
  1366306817,                             ! Version Timestamp
  {fc2bd58d-d8ce-44fc-9d40-b09ed625f97b}; ! Name of Object 1

