
OS:Version,
  {fc7170b7-42f2-42ed-9ede-d03d1e69b2f6}, ! Handle
  0.9.3;                                  ! Version Identifier

OS:SizingPeriod:DesignDay,
  {3c03c561-5931-4308-8abf-72f451d11717}, ! Handle
  GULKANA Ann Clg 2% Condns WB=>MDB,      ! Name
  19.9,                                   ! Maximum Dry-Bulb Temperature {C}
  11.7,                                   ! Daily Dry-Bulb Temperature Range {deltaC}
  13.1,                                   ! Humidity Indicating Conditions at Maximum Dry-Bulb {BasedOnField A3}
  95679,                                  ! Barometric Pressure {Pa}
  2.6,                                    ! Wind Speed {m/s}
  160,                                    ! Wind Direction {deg}
  0,                                      ! Sky Clearness
  0,                                      ! Rain Indicator
  0,                                      ! Snow Indicator
  21,                                     ! Day of Month
  7,                                      ! Month
  SummerDesignDay,                        ! Day Type
  0,                                      ! Daylight Saving Time Indicator
  Wetbulb,                                ! Humidity Indicating Type
  ,                                       ! Humidity Indicating Day Schedule Name
  DefaultMultipliers,                     ! Dry-Bulb Temperature Range Modifier Type
  ,                                       ! Dry-Bulb Temperature Range Modifier Schedule Name
  ASHRAETau,                              ! Solar Model Indicator
  ,                                       ! Beam Solar Day Schedule Name
  ,                                       ! Diffuse Solar Day Schedule Name
  0.385,                                  ! ASHRAE Taub {dimensionless}
  2.111;                                  ! ASHRAE Taud {dimensionless}

OS:ComponentData,
  {716c1535-bb00-44b1-90ec-17f9d0d83f32}, ! Handle
  Component Data 1,                       ! Name
  {a43a5f54-baae-4673-992c-d5f3460fb696}, ! UUID
  {648c14ed-94b1-48ec-885f-3e894f2d0f49}, ! Version UUID
  1366305288,                             ! Creation Timestamp
  1366305288,                             ! Version Timestamp
  {3c03c561-5931-4308-8abf-72f451d11717}; ! Name of Object 1

