
OS:Version,
  {9b0de9b6-5cf3-4625-9787-873ea8fab907}, ! Handle
  0.9.3;                                  ! Version Identifier

OS:SizingPeriod:DesignDay,
  {831dbf12-b569-48bb-8c08-68606e402622}, ! Handle
  College Station Easterwood Fl Ann Clg 2% Condns DB=>MWB, ! Name
  35,                                     ! Maximum Dry-Bulb Temperature {C}
  11.8,                                   ! Daily Dry-Bulb Temperature Range {deltaC}
  24.4,                                   ! Humidity Indicating Conditions at Maximum Dry-Bulb {BasedOnField A3}
  100177,                                 ! Barometric Pressure {Pa}
  3.7,                                    ! Wind Speed {m/s}
  170,                                    ! Wind Direction {deg}
  0,                                      ! Sky Clearness
  0,                                      ! Rain Indicator
  0,                                      ! Snow Indicator
  21,                                     ! Day of Month
  8,                                      ! Month
  SummerDesignDay,                        ! Day Type
  0,                                      ! Daylight Saving Time Indicator
  Wetbulb,                                ! Humidity Indicating Type
  ,                                       ! Humidity Indicating Day Schedule Name
  DefaultMultipliers,                     ! Dry-Bulb Temperature Range Modifier Type
  ,                                       ! Dry-Bulb Temperature Range Modifier Schedule Name
  ASHRAETau,                              ! Solar Model Indicator
  ,                                       ! Beam Solar Day Schedule Name
  ,                                       ! Diffuse Solar Day Schedule Name
  0.479,                                  ! ASHRAE Taub {dimensionless}
  2.029;                                  ! ASHRAE Taud {dimensionless}

OS:ComponentData,
  {75e1eebd-9bb4-4d11-82f8-1e452a40c317}, ! Handle
  Component Data 1,                       ! Name
  {11502cb7-7045-42d6-9a60-3b9dc7065d9d}, ! UUID
  {1eacede5-19b6-4cc8-88b4-3dbd9281ebc7}, ! Version UUID
  1366310618,                             ! Creation Timestamp
  1366310618,                             ! Version Timestamp
  {831dbf12-b569-48bb-8c08-68606e402622}; ! Name of Object 1

