
OS:Version,
  {eae8c120-e486-44b2-8af1-9b6474006083}, ! Handle
  0.9.3;                                  ! Version Identifier

OS:SizingPeriod:DesignDay,
  {03dc043e-2176-461f-9443-215cd0f1275f}, ! Handle
  Atlantic City Intl Ap Ann Clg 2% Condns Enth=>MDB, ! Name
  28.2,                                   ! Maximum Dry-Bulb Temperature {C}
  10.2,                                   ! Daily Dry-Bulb Temperature Range {deltaC}
  72300,                                  ! Humidity Indicating Conditions at Maximum Dry-Bulb {BasedOnField A3}
  101109,                                 ! Barometric Pressure {Pa}
  5,                                      ! Wind Speed {m/s}
  230,                                    ! Wind Direction {deg}
  0,                                      ! Sky Clearness
  0,                                      ! Rain Indicator
  0,                                      ! Snow Indicator
  21,                                     ! Day of Month
  7,                                      ! Month
  SummerDesignDay,                        ! Day Type
  0,                                      ! Daylight Saving Time Indicator
  Enthalpy,                               ! Humidity Indicating Type
  ,                                       ! Humidity Indicating Day Schedule Name
  DefaultMultipliers,                     ! Dry-Bulb Temperature Range Modifier Type
  ,                                       ! Dry-Bulb Temperature Range Modifier Schedule Name
  ASHRAETau,                              ! Solar Model Indicator
  ,                                       ! Beam Solar Day Schedule Name
  ,                                       ! Diffuse Solar Day Schedule Name
  0.557,                                  ! ASHRAE Taub {dimensionless}
  1.774;                                  ! ASHRAE Taud {dimensionless}

OS:ComponentData,
  {6bc8b5fa-b22a-4778-b4a0-956c5c3a10ba}, ! Handle
  Component Data 1,                       ! Name
  {5431c46d-3449-40d8-920c-42149c854747}, ! UUID
  {793e5f24-6ae9-449e-855c-f5637566085a}, ! Version UUID
  1366309291,                             ! Creation Timestamp
  1366309291,                             ! Version Timestamp
  {03dc043e-2176-461f-9443-215cd0f1275f}; ! Name of Object 1

