
OS:Version,
  {1ca1419f-d2fc-4796-a5ab-5d9f69101440}, ! Handle
  0.9.3;                                  ! Version Identifier

OS:SizingPeriod:DesignDay,
  {01af2743-25f8-4746-85cf-8ae42715acae}, ! Handle
  Lubbock/Int'l Arpt Ann Clg .4% Condns WB=>MDB, ! Name
  30.8,                                   ! Maximum Dry-Bulb Temperature {C}
  13.1,                                   ! Daily Dry-Bulb Temperature Range {deltaC}
  22.8,                                   ! Humidity Indicating Conditions at Maximum Dry-Bulb {BasedOnField A3}
  90005,                                  ! Barometric Pressure {Pa}
  6.4,                                    ! Wind Speed {m/s}
  170,                                    ! Wind Direction {deg}
  0,                                      ! Sky Clearness
  0,                                      ! Rain Indicator
  0,                                      ! Snow Indicator
  21,                                     ! Day of Month
  7,                                      ! Month
  SummerDesignDay,                        ! Day Type
  0,                                      ! Daylight Saving Time Indicator
  Wetbulb,                                ! Humidity Indicating Type
  ,                                       ! Humidity Indicating Day Schedule Name
  DefaultMultipliers,                     ! Dry-Bulb Temperature Range Modifier Type
  ,                                       ! Dry-Bulb Temperature Range Modifier Schedule Name
  ASHRAETau,                              ! Solar Model Indicator
  ,                                       ! Beam Solar Day Schedule Name
  ,                                       ! Diffuse Solar Day Schedule Name
  0.396,                                  ! ASHRAE Taub {dimensionless}
  2.241;                                  ! ASHRAE Taud {dimensionless}

OS:ComponentData,
  {fb92999f-1ea6-4055-9641-de78558ae39c}, ! Handle
  Component Data 1,                       ! Name
  {d6b39038-5938-4fef-9891-b0b872695307}, ! UUID
  {fbd3b3ee-9a75-4533-928f-0116b5271fbb}, ! Version UUID
  1366310795,                             ! Creation Timestamp
  1366310795,                             ! Version Timestamp
  {01af2743-25f8-4746-85cf-8ae42715acae}; ! Name of Object 1

