
OS:Version,
  {6397db9f-855b-4ae0-be98-c741db5bd5de}, ! Handle
  0.9.3;                                  ! Version Identifier

OS:SizingPeriod:DesignDay,
  {497663e7-9d97-4b9e-83f9-74df4151e5e5}, ! Handle
  Fairbanks Intl Arpt Ann Hum_n 99% Condns DP=>MCDB, ! Name
  -33.4,                                  ! Maximum Dry-Bulb Temperature {C}
  0,                                      ! Daily Dry-Bulb Temperature Range {deltaC}
  -37.6,                                  ! Humidity Indicating Conditions at Maximum Dry-Bulb {BasedOnField A3}
  99737,                                  ! Barometric Pressure {Pa}
  0.3,                                    ! Wind Speed {m/s}
  20,                                     ! Wind Direction {deg}
  0,                                      ! Sky Clearness
  0,                                      ! Rain Indicator
  0,                                      ! Snow Indicator
  21,                                     ! Day of Month
  1,                                      ! Month
  WinterDesignDay,                        ! Day Type
  0,                                      ! Daylight Saving Time Indicator
  Dewpoint,                               ! Humidity Indicating Type
  ,                                       ! Humidity Indicating Day Schedule Name
  DefaultMultipliers,                     ! Dry-Bulb Temperature Range Modifier Type
  ,                                       ! Dry-Bulb Temperature Range Modifier Schedule Name
  ASHRAEClearSky;                         ! Solar Model Indicator

OS:ComponentData,
  {30dcea69-1585-41a9-8da2-870d8ca6d247}, ! Handle
  Component Data 1,                       ! Name
  {ae1e7f43-c604-4907-869a-752785127ff4}, ! UUID
  {bab7a355-645c-41a5-9b1e-5cd522af5b74}, ! Version UUID
  1366305262,                             ! Creation Timestamp
  1366305262,                             ! Version Timestamp
  {497663e7-9d97-4b9e-83f9-74df4151e5e5}; ! Name of Object 1

