
OS:Version,
  {117ee1b6-d930-46da-9aaf-6116d8388e67}, ! Handle
  0.9.3;                                  ! Version Identifier

OS:SizingPeriod:DesignDay,
  {d75c0135-7ba3-4f3a-94a2-3bfe300cab75}, ! Handle
  Jacksonville/Int'l Air Ann Clg 1% Condns WB=>MDB, ! Name
  31.3,                                   ! Maximum Dry-Bulb Temperature {C}
  10,                                     ! Daily Dry-Bulb Temperature Range {deltaC}
  26.2,                                   ! Humidity Indicating Conditions at Maximum Dry-Bulb {BasedOnField A3}
  101217,                                 ! Barometric Pressure {Pa}
  3.6,                                    ! Wind Speed {m/s}
  260,                                    ! Wind Direction {deg}
  0,                                      ! Sky Clearness
  0,                                      ! Rain Indicator
  0,                                      ! Snow Indicator
  21,                                     ! Day of Month
  7,                                      ! Month
  SummerDesignDay,                        ! Day Type
  0,                                      ! Daylight Saving Time Indicator
  Wetbulb,                                ! Humidity Indicating Type
  ,                                       ! Humidity Indicating Day Schedule Name
  DefaultMultipliers,                     ! Dry-Bulb Temperature Range Modifier Type
  ,                                       ! Dry-Bulb Temperature Range Modifier Schedule Name
  ASHRAETau,                              ! Solar Model Indicator
  ,                                       ! Beam Solar Day Schedule Name
  ,                                       ! Diffuse Solar Day Schedule Name
  0.541,                                  ! ASHRAE Taub {dimensionless}
  1.863;                                  ! ASHRAE Taud {dimensionless}

OS:ComponentData,
  {1b2333e8-d452-4960-878d-ad95e8dc67b0}, ! Handle
  Component Data 1,                       ! Name
  {773afb80-d210-489a-9e76-794c64c75445}, ! UUID
  {0ae09804-77b1-4b97-b2be-1f550cb600de}, ! Version UUID
  1366306820,                             ! Creation Timestamp
  1366306820,                             ! Version Timestamp
  {d75c0135-7ba3-4f3a-94a2-3bfe300cab75}; ! Name of Object 1

