
OS:Version,
  {51245a6d-48e6-45fe-ad13-cd9516839a6d}, ! Handle
  0.9.3;                                  ! Version Identifier

OS:SizingPeriod:DesignDay,
  {4191f08c-bde1-4d5f-8763-707eaafb467f}, ! Handle
  LONG_BEACH Ann Htg Wind 99% Condns WS=>MCDB, ! Name
  14.5,                                   ! Maximum Dry-Bulb Temperature {C}
  0,                                      ! Daily Dry-Bulb Temperature Range {deltaC}
  14.5,                                   ! Humidity Indicating Conditions at Maximum Dry-Bulb {BasedOnField A3}
  101121,                                 ! Barometric Pressure {Pa}
  8.3,                                    ! Wind Speed {m/s}
  300,                                    ! Wind Direction {deg}
  0,                                      ! Sky Clearness
  0,                                      ! Rain Indicator
  0,                                      ! Snow Indicator
  21,                                     ! Day of Month
  12,                                     ! Month
  WinterDesignDay,                        ! Day Type
  0,                                      ! Daylight Saving Time Indicator
  Wetbulb,                                ! Humidity Indicating Type
  ,                                       ! Humidity Indicating Day Schedule Name
  DefaultMultipliers,                     ! Dry-Bulb Temperature Range Modifier Type
  ,                                       ! Dry-Bulb Temperature Range Modifier Schedule Name
  ASHRAEClearSky;                         ! Solar Model Indicator

OS:ComponentData,
  {b8d0ba9a-a3c3-4c5c-96b9-cebce793f811}, ! Handle
  Component Data 1,                       ! Name
  {22dffa72-8825-49c9-8ddf-baf53326b1d4}, ! UUID
  {e3a35f3b-de4c-4fc3-aa2c-d3d975d9fff4}, ! Version UUID
  1366306475,                             ! Creation Timestamp
  1366306475,                             ! Version Timestamp
  {4191f08c-bde1-4d5f-8763-707eaafb467f}; ! Name of Object 1

