
OS:Version,
  {f60d2a16-dd9b-4293-b944-1b0d635db0b2}, ! Handle
  0.9.3;                                  ! Version Identifier

OS:SizingPeriod:DesignDay,
  {da502666-6c92-4cc4-a66f-a74b81728a1f}, ! Handle
  Henderson City Ann Hum_n 99% Condns DP=>MCDB, ! Name
  -9.4,                                   ! Maximum Dry-Bulb Temperature {C}
  0,                                      ! Daily Dry-Bulb Temperature Range {deltaC}
  -15.9,                                  ! Humidity Indicating Conditions at Maximum Dry-Bulb {BasedOnField A3}
  99927,                                  ! Barometric Pressure {Pa}
  2.7,                                    ! Wind Speed {m/s}
  310,                                    ! Wind Direction {deg}
  0,                                      ! Sky Clearness
  0,                                      ! Rain Indicator
  0,                                      ! Snow Indicator
  21,                                     ! Day of Month
  1,                                      ! Month
  WinterDesignDay,                        ! Day Type
  0,                                      ! Daylight Saving Time Indicator
  Dewpoint,                               ! Humidity Indicating Type
  ,                                       ! Humidity Indicating Day Schedule Name
  DefaultMultipliers,                     ! Dry-Bulb Temperature Range Modifier Type
  ,                                       ! Dry-Bulb Temperature Range Modifier Schedule Name
  ASHRAEClearSky;                         ! Solar Model Indicator

OS:ComponentData,
  {17a0ef4e-cce6-49cb-832b-d51ff92bfa09}, ! Handle
  Component Data 1,                       ! Name
  {f016cfea-71f6-433a-9b9d-a2a136c228ba}, ! UUID
  {e5f1aa34-6429-4e66-8bcd-72a04df7c434}, ! Version UUID
  1366307638,                             ! Creation Timestamp
  1366307638,                             ! Version Timestamp
  {da502666-6c92-4cc4-a66f-a74b81728a1f}; ! Name of Object 1

