
OS:Version,
  {9198f9e0-62ea-4d20-9d1b-f4ac8c3604ff}, ! Handle
  0.9.3;                                  ! Version Identifier

OS:SizingPeriod:DesignDay,
  {2aef957e-c931-4c77-8e22-944ddd974c3a}, ! Handle
  BROWNSVILLE Ann Htg 99.6% Condns DB,    ! Name
  2.4,                                    ! Maximum Dry-Bulb Temperature {C}
  0,                                      ! Daily Dry-Bulb Temperature Range {deltaC}
  2.4,                                    ! Humidity Indicating Conditions at Maximum Dry-Bulb {BasedOnField A3}
  101253,                                 ! Barometric Pressure {Pa}
  5.4,                                    ! Wind Speed {m/s}
  330,                                    ! Wind Direction {deg}
  0,                                      ! Sky Clearness
  0,                                      ! Rain Indicator
  0,                                      ! Snow Indicator
  21,                                     ! Day of Month
  1,                                      ! Month
  WinterDesignDay,                        ! Day Type
  0,                                      ! Daylight Saving Time Indicator
  Wetbulb,                                ! Humidity Indicating Type
  ,                                       ! Humidity Indicating Day Schedule Name
  DefaultMultipliers,                     ! Dry-Bulb Temperature Range Modifier Type
  ,                                       ! Dry-Bulb Temperature Range Modifier Schedule Name
  ASHRAEClearSky;                         ! Solar Model Indicator

OS:ComponentData,
  {dd7a44dc-2dcd-41e0-9831-9907daccae70}, ! Handle
  Component Data 1,                       ! Name
  {9d5ef68c-13f5-420c-bc50-82f2f5d8a3fe}, ! UUID
  {48f8d2c4-d063-42f8-8d2d-116571f78788}, ! Version UUID
  1366310609,                             ! Creation Timestamp
  1366310609,                             ! Version Timestamp
  {2aef957e-c931-4c77-8e22-944ddd974c3a}; ! Name of Object 1

