
OS:Version,
  {0fce758f-52a5-46a4-b6b6-5ea6f064516a}, ! Handle
  0.9.3;                                  ! Version Identifier

OS:SizingPeriod:DesignDay,
  {9f1aa2d0-c4fb-4025-9354-d595550bfd9a}, ! Handle
  Lynchburg Regional Arpt Ann Hum_n 99.6% Condns DP=>MCDB, ! Name
  -5,                                     ! Maximum Dry-Bulb Temperature {C}
  0,                                      ! Daily Dry-Bulb Temperature Range {deltaC}
  -19.5,                                  ! Humidity Indicating Conditions at Maximum Dry-Bulb {BasedOnField A3}
  97936,                                  ! Barometric Pressure {Pa}
  2.4,                                    ! Wind Speed {m/s}
  0,                                      ! Wind Direction {deg}
  0,                                      ! Sky Clearness
  0,                                      ! Rain Indicator
  0,                                      ! Snow Indicator
  21,                                     ! Day of Month
  1,                                      ! Month
  WinterDesignDay,                        ! Day Type
  0,                                      ! Daylight Saving Time Indicator
  Dewpoint,                               ! Humidity Indicating Type
  ,                                       ! Humidity Indicating Day Schedule Name
  DefaultMultipliers,                     ! Dry-Bulb Temperature Range Modifier Type
  ,                                       ! Dry-Bulb Temperature Range Modifier Schedule Name
  ASHRAEClearSky;                         ! Solar Model Indicator

OS:ComponentData,
  {1a689430-9ab3-491a-9c3d-cff244a34980}, ! Handle
  Component Data 1,                       ! Name
  {a154cb0a-5a24-48df-9168-1a137da58f35}, ! UUID
  {73ba77ef-3a07-456f-aea8-02b22e51062f}, ! Version UUID
  1366311088,                             ! Creation Timestamp
  1366311088,                             ! Version Timestamp
  {9f1aa2d0-c4fb-4025-9354-d595550bfd9a}; ! Name of Object 1

