
OS:Version,
  {1b42b012-106d-434a-a2d4-6e4d7f2ee3f8}, ! Handle
  0.9.3;                                  ! Version Identifier

OS:SizingPeriod:DesignDay,
  {03c5a3d6-4e20-4ac5-9cf8-f12787117fcf}, ! Handle
  Concordia Blosser Muni Ap Ann Clg 1% Condns DB=>MWB, ! Name
  35.5,                                   ! Maximum Dry-Bulb Temperature {C}
  12.3,                                   ! Daily Dry-Bulb Temperature Range {deltaC}
  23,                                     ! Humidity Indicating Conditions at Maximum Dry-Bulb {BasedOnField A3}
  96058,                                  ! Barometric Pressure {Pa}
  6.6,                                    ! Wind Speed {m/s}
  180,                                    ! Wind Direction {deg}
  0,                                      ! Sky Clearness
  0,                                      ! Rain Indicator
  0,                                      ! Snow Indicator
  21,                                     ! Day of Month
  7,                                      ! Month
  SummerDesignDay,                        ! Day Type
  0,                                      ! Daylight Saving Time Indicator
  Wetbulb,                                ! Humidity Indicating Type
  ,                                       ! Humidity Indicating Day Schedule Name
  DefaultMultipliers,                     ! Dry-Bulb Temperature Range Modifier Type
  ,                                       ! Dry-Bulb Temperature Range Modifier Schedule Name
  ASHRAETau,                              ! Solar Model Indicator
  ,                                       ! Beam Solar Day Schedule Name
  ,                                       ! Diffuse Solar Day Schedule Name
  0.417,                                  ! ASHRAE Taub {dimensionless}
  2.193;                                  ! ASHRAE Taud {dimensionless}

OS:ComponentData,
  {94064389-c3fa-4d9c-a488-4c31f91542ff}, ! Handle
  Component Data 1,                       ! Name
  {9b9d4b19-008e-4351-a2f9-2b865d6def4a}, ! UUID
  {c63b7c16-55f4-4965-be47-177c88a0a11c}, ! Version UUID
  1366307501,                             ! Creation Timestamp
  1366307501,                             ! Version Timestamp
  {03c5a3d6-4e20-4ac5-9cf8-f12787117fcf}; ! Name of Object 1

