
OS:Version,
  {bc696484-d405-4d27-89c5-e3baeee19e14}, ! Handle
  0.9.3;                                  ! Version Identifier

OS:SizingPeriod:DesignDay,
  {f48d16ed-b66c-4423-907e-5663db9b1dc0}, ! Handle
  Great Falls Intl Arpt Ann Clg .4% Condns WB=>MDB, ! Name
  29.2,                                   ! Maximum Dry-Bulb Temperature {C}
  16,                                     ! Daily Dry-Bulb Temperature Range {deltaC}
  17.9,                                   ! Humidity Indicating Conditions at Maximum Dry-Bulb {BasedOnField A3}
  88606,                                  ! Barometric Pressure {Pa}
  4.9,                                    ! Wind Speed {m/s}
  240,                                    ! Wind Direction {deg}
  0,                                      ! Sky Clearness
  0,                                      ! Rain Indicator
  0,                                      ! Snow Indicator
  21,                                     ! Day of Month
  7,                                      ! Month
  SummerDesignDay,                        ! Day Type
  0,                                      ! Daylight Saving Time Indicator
  Wetbulb,                                ! Humidity Indicating Type
  ,                                       ! Humidity Indicating Day Schedule Name
  DefaultMultipliers,                     ! Dry-Bulb Temperature Range Modifier Type
  ,                                       ! Dry-Bulb Temperature Range Modifier Schedule Name
  ASHRAETau,                              ! Solar Model Indicator
  ,                                       ! Beam Solar Day Schedule Name
  ,                                       ! Diffuse Solar Day Schedule Name
  0.383,                                  ! ASHRAE Taub {dimensionless}
  2.176;                                  ! ASHRAE Taud {dimensionless}

OS:ComponentData,
  {64203743-c82b-472f-a624-1278c4d7b0c3}, ! Handle
  Component Data 1,                       ! Name
  {9a67a968-c5c9-4c69-9847-c7d85548ffa5}, ! UUID
  {5aebdcfd-4523-4438-8b66-5a67dc60e984}, ! Version UUID
  1366308780,                             ! Creation Timestamp
  1366308780,                             ! Version Timestamp
  {f48d16ed-b66c-4423-907e-5663db9b1dc0}; ! Name of Object 1

