
OS:Version,
  {126e8424-c00c-4654-89f4-6f3f0f8fb9e4}, ! Handle
  0.9.3;                                  ! Version Identifier

OS:SizingPeriod:DesignDay,
  {c4a269e7-57e8-4d3a-8b43-26d48b43004f}, ! Handle
  Jacksonville Craig Ann Clg 2% Condns Enth=>MDB, ! Name
  30.4,                                   ! Maximum Dry-Bulb Temperature {C}
  9.5,                                    ! Daily Dry-Bulb Temperature Range {deltaC}
  79900,                                  ! Humidity Indicating Conditions at Maximum Dry-Bulb {BasedOnField A3}
  101181,                                 ! Barometric Pressure {Pa}
  4.2,                                    ! Wind Speed {m/s}
  240,                                    ! Wind Direction {deg}
  0,                                      ! Sky Clearness
  0,                                      ! Rain Indicator
  0,                                      ! Snow Indicator
  21,                                     ! Day of Month
  7,                                      ! Month
  SummerDesignDay,                        ! Day Type
  0,                                      ! Daylight Saving Time Indicator
  Enthalpy,                               ! Humidity Indicating Type
  ,                                       ! Humidity Indicating Day Schedule Name
  DefaultMultipliers,                     ! Dry-Bulb Temperature Range Modifier Type
  ,                                       ! Dry-Bulb Temperature Range Modifier Schedule Name
  ASHRAETau,                              ! Solar Model Indicator
  ,                                       ! Beam Solar Day Schedule Name
  ,                                       ! Diffuse Solar Day Schedule Name
  0.538,                                  ! ASHRAE Taub {dimensionless}
  1.872;                                  ! ASHRAE Taud {dimensionless}

OS:ComponentData,
  {d0051a66-b359-48e6-908a-4e90b25999dc}, ! Handle
  Component Data 1,                       ! Name
  {a8e44081-1460-45d3-9d4b-2f7206aed9b9}, ! UUID
  {d74e1c3d-de4c-4aef-921d-1f7c2de8d48f}, ! Version UUID
  1366306814,                             ! Creation Timestamp
  1366306814,                             ! Version Timestamp
  {c4a269e7-57e8-4d3a-8b43-26d48b43004f}; ! Name of Object 1

