
OS:Version,
  {d8262c7d-3380-4896-84a2-5afe698050bc}, ! Handle
  0.9.3;                                  ! Version Identifier

OS:SizingPeriod:DesignDay,
  {61f26a57-4032-4bc1-bc33-7ed6e22d367a}, ! Handle
  Lamar Municipal Ann Clg 1% Condns Enth=>MDB, ! Name
  30.6,                                   ! Maximum Dry-Bulb Temperature {C}
  16.8,                                   ! Daily Dry-Bulb Temperature Range {deltaC}
  66200,                                  ! Humidity Indicating Conditions at Maximum Dry-Bulb {BasedOnField A3}
  88477,                                  ! Barometric Pressure {Pa}
  5.8,                                    ! Wind Speed {m/s}
  180,                                    ! Wind Direction {deg}
  0,                                      ! Sky Clearness
  0,                                      ! Rain Indicator
  0,                                      ! Snow Indicator
  21,                                     ! Day of Month
  7,                                      ! Month
  SummerDesignDay,                        ! Day Type
  0,                                      ! Daylight Saving Time Indicator
  Enthalpy,                               ! Humidity Indicating Type
  ,                                       ! Humidity Indicating Day Schedule Name
  DefaultMultipliers,                     ! Dry-Bulb Temperature Range Modifier Type
  ,                                       ! Dry-Bulb Temperature Range Modifier Schedule Name
  ASHRAETau,                              ! Solar Model Indicator
  ,                                       ! Beam Solar Day Schedule Name
  ,                                       ! Diffuse Solar Day Schedule Name
  0.438,                                  ! ASHRAE Taub {dimensionless}
  1.984;                                  ! ASHRAE Taud {dimensionless}

OS:ComponentData,
  {962616f0-63e7-4fac-8274-f501cce072f2}, ! Handle
  Component Data 1,                       ! Name
  {db9b06ab-bf12-4ab0-8180-5d8cc1b0639f}, ! UUID
  {edb7265f-7b42-4bc3-8ca1-b2eca551daa9}, ! Version UUID
  1366306717,                             ! Creation Timestamp
  1366306717,                             ! Version Timestamp
  {61f26a57-4032-4bc1-bc33-7ed6e22d367a}; ! Name of Object 1

