
OS:Version,
  {98064ff0-fd40-46cc-8d79-b29b6ef4eac5}, ! Handle
  0.9.3;                                  ! Version Identifier

OS:SizingPeriod:DesignDay,
  {1e2be99a-4bde-4ddc-b68a-d899bc86dba8}, ! Handle
  El Toro MCAS Ann Htg Wind 99.6% Condns WS=>MCDB, ! Name
  15.4,                                   ! Maximum Dry-Bulb Temperature {C}
  0,                                      ! Daily Dry-Bulb Temperature Range {deltaC}
  15.4,                                   ! Humidity Indicating Conditions at Maximum Dry-Bulb {BasedOnField A3}
  99939,                                  ! Barometric Pressure {Pa}
  9.4,                                    ! Wind Speed {m/s}
  90,                                     ! Wind Direction {deg}
  0,                                      ! Sky Clearness
  0,                                      ! Rain Indicator
  0,                                      ! Snow Indicator
  21,                                     ! Day of Month
  12,                                     ! Month
  WinterDesignDay,                        ! Day Type
  0,                                      ! Daylight Saving Time Indicator
  Wetbulb,                                ! Humidity Indicating Type
  ,                                       ! Humidity Indicating Day Schedule Name
  DefaultMultipliers,                     ! Dry-Bulb Temperature Range Modifier Type
  ,                                       ! Dry-Bulb Temperature Range Modifier Schedule Name
  ASHRAEClearSky;                         ! Solar Model Indicator

OS:ComponentData,
  {86ea9827-f9bb-44c7-bed4-f30f3914f49e}, ! Handle
  Component Data 1,                       ! Name
  {1ae57f47-d2b5-4fb4-87ab-4df34ba6f79a}, ! UUID
  {a00c616a-2f6e-4e38-8b23-7355787cbdae}, ! Version UUID
  1366306422,                             ! Creation Timestamp
  1366306422,                             ! Version Timestamp
  {1e2be99a-4bde-4ddc-b68a-d899bc86dba8}; ! Name of Object 1

