
OS:Version,
  {32f33026-41ee-4213-b40d-db24cfc932b5}, ! Handle
  0.9.3;                                  ! Version Identifier

OS:SizingPeriod:DesignDay,
  {afbdbabb-68a1-4c23-92fc-77674b9ba453}, ! Handle
  Fort Worth Alliance Ann Hum_n 99.6% Condns DP=>MCDB, ! Name
  -0.9,                                   ! Maximum Dry-Bulb Temperature {C}
  0,                                      ! Daily Dry-Bulb Temperature Range {deltaC}
  -12.3,                                  ! Humidity Indicating Conditions at Maximum Dry-Bulb {BasedOnField A3}
  98639,                                  ! Barometric Pressure {Pa}
  3.6,                                    ! Wind Speed {m/s}
  0,                                      ! Wind Direction {deg}
  0,                                      ! Sky Clearness
  0,                                      ! Rain Indicator
  0,                                      ! Snow Indicator
  21,                                     ! Day of Month
  1,                                      ! Month
  WinterDesignDay,                        ! Day Type
  0,                                      ! Daylight Saving Time Indicator
  Dewpoint,                               ! Humidity Indicating Type
  ,                                       ! Humidity Indicating Day Schedule Name
  DefaultMultipliers,                     ! Dry-Bulb Temperature Range Modifier Type
  ,                                       ! Dry-Bulb Temperature Range Modifier Schedule Name
  ASHRAEClearSky;                         ! Solar Model Indicator

OS:ComponentData,
  {75dd3051-b9eb-4764-8ebf-fd8b3ff53d70}, ! Handle
  Component Data 1,                       ! Name
  {b8f5f035-9984-45cb-94f4-813588c06db4}, ! UUID
  {8933431e-4a08-4ac8-9e9c-4d82de4db1db}, ! Version UUID
  1366310697,                             ! Creation Timestamp
  1366310697,                             ! Version Timestamp
  {afbdbabb-68a1-4c23-92fc-77674b9ba453}; ! Name of Object 1

