
OS:Version,
  {83879155-8099-433d-b0e1-992efb327ee8}, ! Handle
  0.9.3;                                  ! Version Identifier

OS:SizingPeriod:DesignDay,
  {9de00377-1271-42b2-8ac1-e7dc16bbb04b}, ! Handle
  Green Bay Ann Htg 99% Condns DB,        ! Name
  -20.1,                                  ! Maximum Dry-Bulb Temperature {C}
  0,                                      ! Daily Dry-Bulb Temperature Range {deltaC}
  -20.1,                                  ! Humidity Indicating Conditions at Maximum Dry-Bulb {BasedOnField A3}
  98780,                                  ! Barometric Pressure {Pa}
  4.1,                                    ! Wind Speed {m/s}
  280,                                    ! Wind Direction {deg}
  0,                                      ! Sky Clearness
  0,                                      ! Rain Indicator
  0,                                      ! Snow Indicator
  21,                                     ! Day of Month
  1,                                      ! Month
  WinterDesignDay,                        ! Day Type
  0,                                      ! Daylight Saving Time Indicator
  Wetbulb,                                ! Humidity Indicating Type
  ,                                       ! Humidity Indicating Day Schedule Name
  DefaultMultipliers,                     ! Dry-Bulb Temperature Range Modifier Type
  ,                                       ! Dry-Bulb Temperature Range Modifier Schedule Name
  ASHRAEClearSky;                         ! Solar Model Indicator

OS:ComponentData,
  {f0916457-3041-47ba-ba25-341a840b60bc}, ! Handle
  Component Data 1,                       ! Name
  {6bf4f0f2-fb76-4926-8c7d-4ee51f4d9638}, ! UUID
  {64cc14c9-3305-4e02-ad4f-51c21830b822}, ! Version UUID
  1366311483,                             ! Creation Timestamp
  1366311483,                             ! Version Timestamp
  {9de00377-1271-42b2-8ac1-e7dc16bbb04b}; ! Name of Object 1

