
OS:Version,
  {14dd17b4-05ef-4665-ac1e-2efecddcfbc9}, ! Handle
  0.9.3;                                  ! Version Identifier

OS:SizingPeriod:DesignDay,
  {0bad8dac-b108-46a5-a17b-08099bd26753}, ! Handle
  Bangor/Dow AFB Ann Clg 2% Condns Enth=>MDB, ! Name
  25.3,                                   ! Maximum Dry-Bulb Temperature {C}
  11.3,                                   ! Daily Dry-Bulb Temperature Range {deltaC}
  60200,                                  ! Humidity Indicating Conditions at Maximum Dry-Bulb {BasedOnField A3}
  100654,                                 ! Barometric Pressure {Pa}
  4.5,                                    ! Wind Speed {m/s}
  280,                                    ! Wind Direction {deg}
  0,                                      ! Sky Clearness
  0,                                      ! Rain Indicator
  0,                                      ! Snow Indicator
  21,                                     ! Day of Month
  7,                                      ! Month
  SummerDesignDay,                        ! Day Type
  0,                                      ! Daylight Saving Time Indicator
  Enthalpy,                               ! Humidity Indicating Type
  ,                                       ! Humidity Indicating Day Schedule Name
  DefaultMultipliers,                     ! Dry-Bulb Temperature Range Modifier Type
  ,                                       ! Dry-Bulb Temperature Range Modifier Schedule Name
  ASHRAETau,                              ! Solar Model Indicator
  ,                                       ! Beam Solar Day Schedule Name
  ,                                       ! Diffuse Solar Day Schedule Name
  0.458,                                  ! ASHRAE Taub {dimensionless}
  2.019;                                  ! ASHRAE Taud {dimensionless}

OS:ComponentData,
  {ca37fb57-f8cf-4ffa-a20b-132f71ffdf37}, ! Handle
  Component Data 1,                       ! Name
  {39128972-82ed-40bb-a31c-0495729b626c}, ! UUID
  {c19f7f9e-5b87-450d-8074-595cc3fdc769}, ! Version UUID
  1366307872,                             ! Creation Timestamp
  1366307872,                             ! Version Timestamp
  {0bad8dac-b108-46a5-a17b-08099bd26753}; ! Name of Object 1

