
OS:Version,
  {41a6229a-e6fc-4863-8a50-8083fc999800}, ! Handle
  0.9.3;                                  ! Version Identifier

OS:SizingPeriod:DesignDay,
  {c36a7674-23e2-403d-8c6d-5ed6d70846f6}, ! Handle
  Clinton Muni  Awos Ann Clg 1% Condns DP=>MDB, ! Name
  27.7,                                   ! Maximum Dry-Bulb Temperature {C}
  10.9,                                   ! Daily Dry-Bulb Temperature Range {deltaC}
  22.7,                                   ! Humidity Indicating Conditions at Maximum Dry-Bulb {BasedOnField A3}
  98757,                                  ! Barometric Pressure {Pa}
  5.3,                                    ! Wind Speed {m/s}
  210,                                    ! Wind Direction {deg}
  0,                                      ! Sky Clearness
  0,                                      ! Rain Indicator
  0,                                      ! Snow Indicator
  21,                                     ! Day of Month
  7,                                      ! Month
  SummerDesignDay,                        ! Day Type
  0,                                      ! Daylight Saving Time Indicator
  Dewpoint,                               ! Humidity Indicating Type
  ,                                       ! Humidity Indicating Day Schedule Name
  DefaultMultipliers,                     ! Dry-Bulb Temperature Range Modifier Type
  ,                                       ! Dry-Bulb Temperature Range Modifier Schedule Name
  ASHRAETau,                              ! Solar Model Indicator
  ,                                       ! Beam Solar Day Schedule Name
  ,                                       ! Diffuse Solar Day Schedule Name
  0.444,                                  ! ASHRAE Taub {dimensionless}
  2.086;                                  ! ASHRAE Taud {dimensionless}

OS:ComponentData,
  {bcc19b92-ce0d-430f-b57c-9b0edf2c1002}, ! Handle
  Component Data 1,                       ! Name
  {8e2fb274-7c35-4119-a482-8a63044db4bd}, ! UUID
  {32ebb6d8-c82b-44b1-b231-079329970082}, ! Version UUID
  1366307160,                             ! Creation Timestamp
  1366307160,                             ! Version Timestamp
  {c36a7674-23e2-403d-8c6d-5ed6d70846f6}; ! Name of Object 1

