
OS:Version,
  {7834285e-9c00-40be-bfae-d4faf2fc4c81}, ! Handle
  0.9.3;                                  ! Version Identifier

OS:SizingPeriod:DesignDay,
  {92a1f7fd-a309-4df2-bcf2-e1d332e1b256}, ! Handle
  Erie International Ap Ann Clg 2% Condns DP=>MDB, ! Name
  25.1,                                   ! Maximum Dry-Bulb Temperature {C}
  8.3,                                    ! Daily Dry-Bulb Temperature Range {deltaC}
  21.1,                                   ! Humidity Indicating Conditions at Maximum Dry-Bulb {BasedOnField A3}
  98686,                                  ! Barometric Pressure {Pa}
  5,                                      ! Wind Speed {m/s}
  260,                                    ! Wind Direction {deg}
  0,                                      ! Sky Clearness
  0,                                      ! Rain Indicator
  0,                                      ! Snow Indicator
  21,                                     ! Day of Month
  7,                                      ! Month
  SummerDesignDay,                        ! Day Type
  0,                                      ! Daylight Saving Time Indicator
  Dewpoint,                               ! Humidity Indicating Type
  ,                                       ! Humidity Indicating Day Schedule Name
  DefaultMultipliers,                     ! Dry-Bulb Temperature Range Modifier Type
  ,                                       ! Dry-Bulb Temperature Range Modifier Schedule Name
  ASHRAETau,                              ! Solar Model Indicator
  ,                                       ! Beam Solar Day Schedule Name
  ,                                       ! Diffuse Solar Day Schedule Name
  0.455,                                  ! ASHRAE Taub {dimensionless}
  2.041;                                  ! ASHRAE Taud {dimensionless}

OS:ComponentData,
  {90c848b3-0977-45fa-99b0-078ec00b6a00}, ! Handle
  Component Data 1,                       ! Name
  {08cfe2a3-9c4c-42b7-b77e-7b37a84006d7}, ! UUID
  {62db6c23-5403-4df2-9d5c-7467c7eafe74}, ! Version UUID
  1366310175,                             ! Creation Timestamp
  1366310175,                             ! Version Timestamp
  {92a1f7fd-a309-4df2-bcf2-e1d332e1b256}; ! Name of Object 1

