
OS:Version,
  {ace0259e-9126-4396-b9c0-6bda4907012a}, ! Handle
  0.9.3;                                  ! Version Identifier

OS:SizingPeriod:DesignDay,
  {d67d4e73-ffc8-4c10-8522-15b1346baa98}, ! Handle
  Long Beach Ann Htg Wind 99% Condns WS=>MCDB, ! Name
  14.5,                                   ! Maximum Dry-Bulb Temperature {C}
  0,                                      ! Daily Dry-Bulb Temperature Range {deltaC}
  14.5,                                   ! Humidity Indicating Conditions at Maximum Dry-Bulb {BasedOnField A3}
  101181,                                 ! Barometric Pressure {Pa}
  8.3,                                    ! Wind Speed {m/s}
  300,                                    ! Wind Direction {deg}
  0,                                      ! Sky Clearness
  0,                                      ! Rain Indicator
  0,                                      ! Snow Indicator
  21,                                     ! Day of Month
  12,                                     ! Month
  WinterDesignDay,                        ! Day Type
  0,                                      ! Daylight Saving Time Indicator
  Wetbulb,                                ! Humidity Indicating Type
  ,                                       ! Humidity Indicating Day Schedule Name
  DefaultMultipliers,                     ! Dry-Bulb Temperature Range Modifier Type
  ,                                       ! Dry-Bulb Temperature Range Modifier Schedule Name
  ASHRAEClearSky;                         ! Solar Model Indicator

OS:ComponentData,
  {dc2fbb1f-4fe3-4d0e-9051-4ef90fb1e6d0}, ! Handle
  Component Data 1,                       ! Name
  {54d57c65-f8d9-4084-8e56-22c77d4bff6d}, ! UUID
  {141d4c0d-a58c-4fb4-84bd-da20a52ad9a1}, ! Version UUID
  1366306469,                             ! Creation Timestamp
  1366306469,                             ! Version Timestamp
  {d67d4e73-ffc8-4c10-8522-15b1346baa98}; ! Name of Object 1

