
OS:Version,
  {95283a63-fc51-4343-8f65-c840e0d5e93b}, ! Handle
  0.9.3;                                  ! Version Identifier

OS:SizingPeriod:DesignDay,
  {9936444a-8494-4ab7-920f-c7cea10c94c3}, ! Handle
  Auburn Lewiston Ann Clg 2% Condns Enth=>MDB, ! Name
  25.8,                                   ! Maximum Dry-Bulb Temperature {C}
  11.4,                                   ! Daily Dry-Bulb Temperature Range {deltaC}
  60400,                                  ! Humidity Indicating Conditions at Maximum Dry-Bulb {BasedOnField A3}
  100272,                                 ! Barometric Pressure {Pa}
  4,                                      ! Wind Speed {m/s}
  210,                                    ! Wind Direction {deg}
  0,                                      ! Sky Clearness
  0,                                      ! Rain Indicator
  0,                                      ! Snow Indicator
  21,                                     ! Day of Month
  7,                                      ! Month
  SummerDesignDay,                        ! Day Type
  0,                                      ! Daylight Saving Time Indicator
  Enthalpy,                               ! Humidity Indicating Type
  ,                                       ! Humidity Indicating Day Schedule Name
  DefaultMultipliers,                     ! Dry-Bulb Temperature Range Modifier Type
  ,                                       ! Dry-Bulb Temperature Range Modifier Schedule Name
  ASHRAETau,                              ! Solar Model Indicator
  ,                                       ! Beam Solar Day Schedule Name
  ,                                       ! Diffuse Solar Day Schedule Name
  0.462,                                  ! ASHRAE Taub {dimensionless}
  2.003;                                  ! ASHRAE Taud {dimensionless}

OS:ComponentData,
  {1f201bd3-912d-4b1e-ab96-353632376bc0}, ! Handle
  Component Data 1,                       ! Name
  {cc16e696-5b8b-488c-921a-f82b89104393}, ! UUID
  {94b1fd31-0aa3-4a0a-944a-503c4d0cb52b}, ! Version UUID
  1366307866,                             ! Creation Timestamp
  1366307866,                             ! Version Timestamp
  {9936444a-8494-4ab7-920f-c7cea10c94c3}; ! Name of Object 1

