
OS:Version,
  {d60d34ab-64cc-4bb5-8497-3d8bc7b0c058}, ! Handle
  0.9.3;                                  ! Version Identifier

OS:SizingPeriod:DesignDay,
  {b8e93a23-5431-450a-87d7-af00e90c0f7c}, ! Handle
  LONG_BEACH Ann Clg .4% Condns WB=>MDB,  ! Name
  28.8,                                   ! Maximum Dry-Bulb Temperature {C}
  9.5,                                    ! Daily Dry-Bulb Temperature Range {deltaC}
  22.5,                                   ! Humidity Indicating Conditions at Maximum Dry-Bulb {BasedOnField A3}
  101121,                                 ! Barometric Pressure {Pa}
  4.1,                                    ! Wind Speed {m/s}
  280,                                    ! Wind Direction {deg}
  0,                                      ! Sky Clearness
  0,                                      ! Rain Indicator
  0,                                      ! Snow Indicator
  21,                                     ! Day of Month
  8,                                      ! Month
  SummerDesignDay,                        ! Day Type
  0,                                      ! Daylight Saving Time Indicator
  Wetbulb,                                ! Humidity Indicating Type
  ,                                       ! Humidity Indicating Day Schedule Name
  DefaultMultipliers,                     ! Dry-Bulb Temperature Range Modifier Type
  ,                                       ! Dry-Bulb Temperature Range Modifier Schedule Name
  ASHRAETau,                              ! Solar Model Indicator
  ,                                       ! Beam Solar Day Schedule Name
  ,                                       ! Diffuse Solar Day Schedule Name
  0.45,                                   ! ASHRAE Taub {dimensionless}
  2.074;                                  ! ASHRAE Taud {dimensionless}

OS:ComponentData,
  {62cc7481-872c-4f8b-99e9-3c98e32b1f3b}, ! Handle
  Component Data 1,                       ! Name
  {1bb6c810-d25d-4dd8-a94d-f4d709bc4423}, ! UUID
  {dc6287da-10a0-40e1-ad05-85ddcce9aaf4}, ! Version UUID
  1366306475,                             ! Creation Timestamp
  1366306475,                             ! Version Timestamp
  {b8e93a23-5431-450a-87d7-af00e90c0f7c}; ! Name of Object 1

