
OS:Version,
  {543b064d-3809-4a2e-b9a7-b5892395c710}, ! Handle
  0.9.3;                                  ! Version Identifier

OS:SizingPeriod:DesignDay,
  {852bd7dd-fd88-4958-961c-08659743e703}, ! Handle
  Fort Polk Aaf Ann Clg .4% Condns WB=>MDB, ! Name
  31.4,                                   ! Maximum Dry-Bulb Temperature {C}
  10,                                     ! Daily Dry-Bulb Temperature Range {deltaC}
  26.4,                                   ! Humidity Indicating Conditions at Maximum Dry-Bulb {BasedOnField A3}
  100106,                                 ! Barometric Pressure {Pa}
  2.2,                                    ! Wind Speed {m/s}
  180,                                    ! Wind Direction {deg}
  0,                                      ! Sky Clearness
  0,                                      ! Rain Indicator
  0,                                      ! Snow Indicator
  21,                                     ! Day of Month
  7,                                      ! Month
  SummerDesignDay,                        ! Day Type
  0,                                      ! Daylight Saving Time Indicator
  Wetbulb,                                ! Humidity Indicating Type
  ,                                       ! Humidity Indicating Day Schedule Name
  DefaultMultipliers,                     ! Dry-Bulb Temperature Range Modifier Type
  ,                                       ! Dry-Bulb Temperature Range Modifier Schedule Name
  ASHRAETau,                              ! Solar Model Indicator
  ,                                       ! Beam Solar Day Schedule Name
  ,                                       ! Diffuse Solar Day Schedule Name
  0.512,                                  ! ASHRAE Taub {dimensionless}
  1.937;                                  ! ASHRAE Taud {dimensionless}

OS:ComponentData,
  {5100cc4b-8890-468a-8f99-c645c112334d}, ! Handle
  Component Data 1,                       ! Name
  {c8b8cb03-a584-4ccd-83ec-77592b8dc6f5}, ! UUID
  {c1b82f87-e6f3-4e50-8c56-701b4ec52113}, ! Version UUID
  1366307715,                             ! Creation Timestamp
  1366307715,                             ! Version Timestamp
  {852bd7dd-fd88-4958-961c-08659743e703}; ! Name of Object 1

