
OS:Version,
  {1cf0b3fe-af05-4fee-a26a-3ccd093ab931}, ! Handle
  0.9.3;                                  ! Version Identifier

OS:SizingPeriod:DesignDay,
  {76ab5980-5171-4d40-b32a-a364b7bf6bbf}, ! Handle
  Little Falls  Awos Ann Htg 99.6% Condns DB, ! Name
  -27.8,                                  ! Maximum Dry-Bulb Temperature {C}
  0,                                      ! Daily Dry-Bulb Temperature Range {deltaC}
  -27.8,                                  ! Humidity Indicating Conditions at Maximum Dry-Bulb {BasedOnField A3}
  97283,                                  ! Barometric Pressure {Pa}
  0.9,                                    ! Wind Speed {m/s}
  290,                                    ! Wind Direction {deg}
  0,                                      ! Sky Clearness
  0,                                      ! Rain Indicator
  0,                                      ! Snow Indicator
  21,                                     ! Day of Month
  1,                                      ! Month
  WinterDesignDay,                        ! Day Type
  0,                                      ! Daylight Saving Time Indicator
  Wetbulb,                                ! Humidity Indicating Type
  ,                                       ! Humidity Indicating Day Schedule Name
  DefaultMultipliers,                     ! Dry-Bulb Temperature Range Modifier Type
  ,                                       ! Dry-Bulb Temperature Range Modifier Schedule Name
  ASHRAEClearSky;                         ! Solar Model Indicator

OS:ComponentData,
  {453d4946-9ef8-4b18-82d0-cf1b18c440de}, ! Handle
  Component Data 1,                       ! Name
  {84f52ca0-ff89-45ae-9502-293381988324}, ! UUID
  {27d0c1c7-fabc-4131-8795-181547289d6e}, ! Version UUID
  1366308286,                             ! Creation Timestamp
  1366308286,                             ! Version Timestamp
  {76ab5980-5171-4d40-b32a-a364b7bf6bbf}; ! Name of Object 1

