
OS:Version,
  {a1ec2c85-290a-487c-8a38-e566550119ba}, ! Handle
  0.9.3;                                  ! Version Identifier

OS:SizingPeriod:DesignDay,
  {ace68da9-c5f3-4a6f-9ce9-b9eb9b8f853c}, ! Handle
  Concord Ann Clg .4% Condns DB=>MWB,     ! Name
  32.1,                                   ! Maximum Dry-Bulb Temperature {C}
  12.8,                                   ! Daily Dry-Bulb Temperature Range {deltaC}
  21.8,                                   ! Humidity Indicating Conditions at Maximum Dry-Bulb {BasedOnField A3}
  100070,                                 ! Barometric Pressure {Pa}
  4.4,                                    ! Wind Speed {m/s}
  230,                                    ! Wind Direction {deg}
  0,                                      ! Sky Clearness
  0,                                      ! Rain Indicator
  0,                                      ! Snow Indicator
  21,                                     ! Day of Month
  7,                                      ! Month
  SummerDesignDay,                        ! Day Type
  0,                                      ! Daylight Saving Time Indicator
  Wetbulb,                                ! Humidity Indicating Type
  ,                                       ! Humidity Indicating Day Schedule Name
  DefaultMultipliers,                     ! Dry-Bulb Temperature Range Modifier Type
  ,                                       ! Dry-Bulb Temperature Range Modifier Schedule Name
  ASHRAETau,                              ! Solar Model Indicator
  ,                                       ! Beam Solar Day Schedule Name
  ,                                       ! Diffuse Solar Day Schedule Name
  0.459,                                  ! ASHRAE Taub {dimensionless}
  2.014;                                  ! ASHRAE Taud {dimensionless}

OS:ComponentData,
  {3b40488d-a252-4989-a53a-df804736d504}, ! Handle
  Component Data 1,                       ! Name
  {4242ec72-926d-4a9b-ab83-c856a3ee893e}, ! UUID
  {dfee604e-d4df-4b40-894e-29ec05b671b5}, ! Version UUID
  1366309225,                             ! Creation Timestamp
  1366309225,                             ! Version Timestamp
  {ace68da9-c5f3-4a6f-9ce9-b9eb9b8f853c}; ! Name of Object 1

