
OS:Version,
  {824bcdb9-a5c8-451b-9e6d-bf02ad1b5fb7}, ! Handle
  0.9.3;                                  ! Version Identifier

OS:SizingPeriod:DesignDay,
  {6d9ce0f7-a907-42d5-8302-485078f697b5}, ! Handle
  Greensboro Piedmont Triad Int Ann Hum_n 99.6% Condns DP=>MCDB, ! Name
  -4.1,                                   ! Maximum Dry-Bulb Temperature {C}
  0,                                      ! Daily Dry-Bulb Temperature Range {deltaC}
  -18.2,                                  ! Humidity Indicating Conditions at Maximum Dry-Bulb {BasedOnField A3}
  98088,                                  ! Barometric Pressure {Pa}
  3,                                      ! Wind Speed {m/s}
  300,                                    ! Wind Direction {deg}
  0,                                      ! Sky Clearness
  0,                                      ! Rain Indicator
  0,                                      ! Snow Indicator
  21,                                     ! Day of Month
  1,                                      ! Month
  WinterDesignDay,                        ! Day Type
  0,                                      ! Daylight Saving Time Indicator
  Dewpoint,                               ! Humidity Indicating Type
  ,                                       ! Humidity Indicating Day Schedule Name
  DefaultMultipliers,                     ! Dry-Bulb Temperature Range Modifier Type
  ,                                       ! Dry-Bulb Temperature Range Modifier Schedule Name
  ASHRAEClearSky;                         ! Solar Model Indicator

OS:ComponentData,
  {e26b6072-dc1b-4dc3-9614-7b62d3cb1f1a}, ! Handle
  Component Data 1,                       ! Name
  {2b8bb32e-38f0-437c-b4a0-16891bcae972}, ! UUID
  {b3110a1d-068f-45bb-bdf0-e9a3dd6f6c22}, ! Version UUID
  1366308932,                             ! Creation Timestamp
  1366308932,                             ! Version Timestamp
  {6d9ce0f7-a907-42d5-8302-485078f697b5}; ! Name of Object 1

