
OS:Version,
  {ee0900ef-f997-4ef4-82e4-38c67a61fffc}, ! Handle
  0.9.3;                                  ! Version Identifier

OS:SizingPeriod:DesignDay,
  {f5464fa4-8d09-4c13-84bc-1ae3852453e1}, ! Handle
  Chippewa Co Intl Ann Clg 2% Condns DP=>MDB, ! Name
  21.8,                                   ! Maximum Dry-Bulb Temperature {C}
  10.6,                                   ! Daily Dry-Bulb Temperature Range {deltaC}
  17.9,                                   ! Humidity Indicating Conditions at Maximum Dry-Bulb {BasedOnField A3}
  98358,                                  ! Barometric Pressure {Pa}
  4.1,                                    ! Wind Speed {m/s}
  240,                                    ! Wind Direction {deg}
  0,                                      ! Sky Clearness
  0,                                      ! Rain Indicator
  0,                                      ! Snow Indicator
  21,                                     ! Day of Month
  7,                                      ! Month
  SummerDesignDay,                        ! Day Type
  0,                                      ! Daylight Saving Time Indicator
  Dewpoint,                               ! Humidity Indicating Type
  ,                                       ! Humidity Indicating Day Schedule Name
  DefaultMultipliers,                     ! Dry-Bulb Temperature Range Modifier Type
  ,                                       ! Dry-Bulb Temperature Range Modifier Schedule Name
  ASHRAETau,                              ! Solar Model Indicator
  ,                                       ! Beam Solar Day Schedule Name
  ,                                       ! Diffuse Solar Day Schedule Name
  0.41,                                   ! ASHRAE Taub {dimensionless}
  2.2;                                    ! ASHRAE Taud {dimensionless}

OS:ComponentData,
  {09327bc5-40de-4284-8693-7f111cbc7bf6}, ! Handle
  Component Data 1,                       ! Name
  {991b0406-97d0-4f9d-8fdc-183a48b1fdb4}, ! UUID
  {c48bb85b-fe3e-48df-a9db-68f608a65fe7}, ! Version UUID
  1366307969,                             ! Creation Timestamp
  1366307969,                             ! Version Timestamp
  {f5464fa4-8d09-4c13-84bc-1ae3852453e1}; ! Name of Object 1

