
OS:Version,
  {c0399081-f2e9-4d33-a159-ce50d54e682a}, ! Handle
  0.9.3;                                  ! Version Identifier

OS:SizingPeriod:DesignDay,
  {d62beac3-39a1-4f9b-8381-f7f4202f1bed}, ! Handle
  DAYTON Ann Htg 99.6% Condns DB,         ! Name
  -17,                                    ! Maximum Dry-Bulb Temperature {C}
  0,                                      ! Daily Dry-Bulb Temperature Range {deltaC}
  -17,                                    ! Humidity Indicating Conditions at Maximum Dry-Bulb {BasedOnField A3}
  97703,                                  ! Barometric Pressure {Pa}
  3.3,                                    ! Wind Speed {m/s}
  260,                                    ! Wind Direction {deg}
  0,                                      ! Sky Clearness
  0,                                      ! Rain Indicator
  0,                                      ! Snow Indicator
  21,                                     ! Day of Month
  1,                                      ! Month
  WinterDesignDay,                        ! Day Type
  0,                                      ! Daylight Saving Time Indicator
  Wetbulb,                                ! Humidity Indicating Type
  ,                                       ! Humidity Indicating Day Schedule Name
  DefaultMultipliers,                     ! Dry-Bulb Temperature Range Modifier Type
  ,                                       ! Dry-Bulb Temperature Range Modifier Schedule Name
  ASHRAEClearSky;                         ! Solar Model Indicator

OS:ComponentData,
  {2633dff8-c1ef-4dc9-8d77-74dd50e1ef97}, ! Handle
  Component Data 1,                       ! Name
  {85209fc6-ce3c-4e96-b0c7-172c759aed95}, ! UUID
  {8a39943b-aeea-4ac8-985c-8ac30d017567}, ! Version UUID
  1366309816,                             ! Creation Timestamp
  1366309816,                             ! Version Timestamp
  {d62beac3-39a1-4f9b-8381-f7f4202f1bed}; ! Name of Object 1

