
OS:Version,
  {5d7de763-688e-4a75-8243-d4f9386a1906}, ! Handle
  0.9.3;                                  ! Version Identifier

OS:SizingPeriod:DesignDay,
  {f837e38c-7ee3-440f-a8c3-95d0c94af755}, ! Handle
  Kirksville Regional Ap Ann Clg .4% Condns WB=>MDB, ! Name
  32,                                     ! Maximum Dry-Bulb Temperature {C}
  10.6,                                   ! Daily Dry-Bulb Temperature Range {deltaC}
  25.6,                                   ! Humidity Indicating Conditions at Maximum Dry-Bulb {BasedOnField A3}
  97843,                                  ! Barometric Pressure {Pa}
  4.9,                                    ! Wind Speed {m/s}
  210,                                    ! Wind Direction {deg}
  0,                                      ! Sky Clearness
  0,                                      ! Rain Indicator
  0,                                      ! Snow Indicator
  21,                                     ! Day of Month
  7,                                      ! Month
  SummerDesignDay,                        ! Day Type
  0,                                      ! Daylight Saving Time Indicator
  Wetbulb,                                ! Humidity Indicating Type
  ,                                       ! Humidity Indicating Day Schedule Name
  DefaultMultipliers,                     ! Dry-Bulb Temperature Range Modifier Type
  ,                                       ! Dry-Bulb Temperature Range Modifier Schedule Name
  ASHRAETau,                              ! Solar Model Indicator
  ,                                       ! Beam Solar Day Schedule Name
  ,                                       ! Diffuse Solar Day Schedule Name
  0.44,                                   ! ASHRAE Taub {dimensionless}
  2.113;                                  ! ASHRAE Taud {dimensionless}

OS:ComponentData,
  {8cadb957-63cd-4a94-97e9-258a87b9bf3d}, ! Handle
  Component Data 1,                       ! Name
  {73e35882-3080-4ee0-82c1-96e802d6d9bb}, ! UUID
  {7791764d-566c-4b18-bf82-a79ecdd5bbfd}, ! Version UUID
  1366308538,                             ! Creation Timestamp
  1366308538,                             ! Version Timestamp
  {f837e38c-7ee3-440f-a8c3-95d0c94af755}; ! Name of Object 1

