
OS:Version,
  {a6ea0156-8c51-495d-a3e9-fb44840a4841}, ! Handle
  0.9.3;                                  ! Version Identifier

OS:SizingPeriod:DesignDay,
  {15d95ef3-1b76-4883-b7d7-57f8ebc34916}, ! Handle
  Great Bend  Awos Ann Clg 2% Condns WB=>MDB, ! Name
  31.5,                                   ! Maximum Dry-Bulb Temperature {C}
  13.2,                                   ! Daily Dry-Bulb Temperature Range {deltaC}
  22.9,                                   ! Humidity Indicating Conditions at Maximum Dry-Bulb {BasedOnField A3}
  94605,                                  ! Barometric Pressure {Pa}
  7.4,                                    ! Wind Speed {m/s}
  190,                                    ! Wind Direction {deg}
  0,                                      ! Sky Clearness
  0,                                      ! Rain Indicator
  0,                                      ! Snow Indicator
  21,                                     ! Day of Month
  7,                                      ! Month
  SummerDesignDay,                        ! Day Type
  0,                                      ! Daylight Saving Time Indicator
  Wetbulb,                                ! Humidity Indicating Type
  ,                                       ! Humidity Indicating Day Schedule Name
  DefaultMultipliers,                     ! Dry-Bulb Temperature Range Modifier Type
  ,                                       ! Dry-Bulb Temperature Range Modifier Schedule Name
  ASHRAETau,                              ! Solar Model Indicator
  ,                                       ! Beam Solar Day Schedule Name
  ,                                       ! Diffuse Solar Day Schedule Name
  0.423,                                  ! ASHRAE Taub {dimensionless}
  2.152;                                  ! ASHRAE Taud {dimensionless}

OS:ComponentData,
  {323e0fff-da4a-4154-b732-87edb8403ab6}, ! Handle
  Component Data 1,                       ! Name
  {e47eb00d-3605-46d3-885b-7ebb2e0380ef}, ! UUID
  {38892167-bf56-4efa-bf30-b5e782f13ac6}, ! Version UUID
  1366307542,                             ! Creation Timestamp
  1366307542,                             ! Version Timestamp
  {15d95ef3-1b76-4883-b7d7-57f8ebc34916}; ! Name of Object 1

