
OS:Version,
  {19731d96-4241-42dd-bd98-6d5538f86546}, ! Handle
  0.9.3;                                  ! Version Identifier

OS:SizingPeriod:DesignDay,
  {886dd37e-90a7-4d69-b197-e8ce6ff83bed}, ! Handle
  Evansville Regional Ap Ann Clg 2% Condns DB=>MWB, ! Name
  32,                                     ! Maximum Dry-Bulb Temperature {C}
  10.6,                                   ! Daily Dry-Bulb Temperature Range {deltaC}
  23.8,                                   ! Humidity Indicating Conditions at Maximum Dry-Bulb {BasedOnField A3}
  99939,                                  ! Barometric Pressure {Pa}
  3.7,                                    ! Wind Speed {m/s}
  240,                                    ! Wind Direction {deg}
  0,                                      ! Sky Clearness
  0,                                      ! Rain Indicator
  0,                                      ! Snow Indicator
  21,                                     ! Day of Month
  7,                                      ! Month
  SummerDesignDay,                        ! Day Type
  0,                                      ! Daylight Saving Time Indicator
  Wetbulb,                                ! Humidity Indicating Type
  ,                                       ! Humidity Indicating Day Schedule Name
  DefaultMultipliers,                     ! Dry-Bulb Temperature Range Modifier Type
  ,                                       ! Dry-Bulb Temperature Range Modifier Schedule Name
  ASHRAETau,                              ! Solar Model Indicator
  ,                                       ! Beam Solar Day Schedule Name
  ,                                       ! Diffuse Solar Day Schedule Name
  0.508,                                  ! ASHRAE Taub {dimensionless}
  1.881;                                  ! ASHRAE Taud {dimensionless}

OS:ComponentData,
  {eb6ac526-7d05-4443-82c0-ae5aa9c9ddc9}, ! Handle
  Component Data 1,                       ! Name
  {db86dab0-778b-4900-9a78-04b0b394df1d}, ! UUID
  {9353fa3c-3330-4e0b-abdb-281ff7549441}, ! Version UUID
  1366307433,                             ! Creation Timestamp
  1366307433,                             ! Version Timestamp
  {886dd37e-90a7-4d69-b197-e8ce6ff83bed}; ! Name of Object 1

