
OS:Version,
  {5dea53e9-7039-4e3b-88ea-e08a95cdbeff}, ! Handle
  0.9.3;                                  ! Version Identifier

OS:SizingPeriod:DesignDay,
  {8283aee8-6c5e-4191-bf3d-bee3c0144dc8}, ! Handle
  Eau Claire Ann Htg Wind 99.6% Condns WS=>MCDB, ! Name
  -6.1,                                   ! Maximum Dry-Bulb Temperature {C}
  0,                                      ! Daily Dry-Bulb Temperature Range {deltaC}
  -6.1,                                   ! Humidity Indicating Conditions at Maximum Dry-Bulb {BasedOnField A3}
  98053,                                  ! Barometric Pressure {Pa}
  9.3,                                    ! Wind Speed {m/s}
  250,                                    ! Wind Direction {deg}
  0,                                      ! Sky Clearness
  0,                                      ! Rain Indicator
  0,                                      ! Snow Indicator
  21,                                     ! Day of Month
  1,                                      ! Month
  WinterDesignDay,                        ! Day Type
  0,                                      ! Daylight Saving Time Indicator
  Wetbulb,                                ! Humidity Indicating Type
  ,                                       ! Humidity Indicating Day Schedule Name
  DefaultMultipliers,                     ! Dry-Bulb Temperature Range Modifier Type
  ,                                       ! Dry-Bulb Temperature Range Modifier Schedule Name
  ASHRAEClearSky;                         ! Solar Model Indicator

OS:ComponentData,
  {207183e1-ec83-4ba7-bae9-b2b658326cc7}, ! Handle
  Component Data 1,                       ! Name
  {2a52686f-bc3b-42c6-ab36-09dbd83d0894}, ! UUID
  {1eb37fba-5917-4b5c-8641-3b42d1babf96}, ! Version UUID
  1366311468,                             ! Creation Timestamp
  1366311468,                             ! Version Timestamp
  {8283aee8-6c5e-4191-bf3d-bee3c0144dc8}; ! Name of Object 1

