
OS:Version,
  {89048e61-7cb3-4467-9646-6f2e9c12df5c}, ! Handle
  0.9.3;                                  ! Version Identifier

OS:SizingPeriod:DesignDay,
  {80f077cf-913d-4de3-b493-64a56e0cfd5f}, ! Handle
  GREAT_FALLS Ann Htg 99.6% Condns DB,    ! Name
  -27.2,                                  ! Maximum Dry-Bulb Temperature {C}
  0,                                      ! Daily Dry-Bulb Temperature Range {deltaC}
  -27.2,                                  ! Humidity Indicating Conditions at Maximum Dry-Bulb {BasedOnField A3}
  88617,                                  ! Barometric Pressure {Pa}
  2,                                      ! Wind Speed {m/s}
  40,                                     ! Wind Direction {deg}
  0,                                      ! Sky Clearness
  0,                                      ! Rain Indicator
  0,                                      ! Snow Indicator
  21,                                     ! Day of Month
  1,                                      ! Month
  WinterDesignDay,                        ! Day Type
  0,                                      ! Daylight Saving Time Indicator
  Wetbulb,                                ! Humidity Indicating Type
  ,                                       ! Humidity Indicating Day Schedule Name
  DefaultMultipliers,                     ! Dry-Bulb Temperature Range Modifier Type
  ,                                       ! Dry-Bulb Temperature Range Modifier Schedule Name
  ASHRAEClearSky;                         ! Solar Model Indicator

OS:ComponentData,
  {00937b82-7a49-495b-b757-b7b49bb8ea8d}, ! Handle
  Component Data 1,                       ! Name
  {2691d419-8d8a-47df-ae75-dbaa119683d5}, ! UUID
  {a388c837-c776-4c80-baa4-c1df7a7a10b0}, ! Version UUID
  1366308770,                             ! Creation Timestamp
  1366308770,                             ! Version Timestamp
  {80f077cf-913d-4de3-b493-64a56e0cfd5f}; ! Name of Object 1

