
OS:Version,
  {38729346-d205-450f-9d3c-76ecccef8e4d}, ! Handle
  0.9.3;                                  ! Version Identifier

OS:SizingPeriod:DesignDay,
  {c6537a7d-716f-46b7-9e8b-4eced92eba5c}, ! Handle
  Dayton/Wright-Paterson Ann Clg 1% Condns WB=>MDB, ! Name
  29.5,                                   ! Maximum Dry-Bulb Temperature {C}
  11,                                     ! Daily Dry-Bulb Temperature Range {deltaC}
  24.4,                                   ! Humidity Indicating Conditions at Maximum Dry-Bulb {BasedOnField A3}
  98346,                                  ! Barometric Pressure {Pa}
  3.9,                                    ! Wind Speed {m/s}
  240,                                    ! Wind Direction {deg}
  0,                                      ! Sky Clearness
  0,                                      ! Rain Indicator
  0,                                      ! Snow Indicator
  21,                                     ! Day of Month
  7,                                      ! Month
  SummerDesignDay,                        ! Day Type
  0,                                      ! Daylight Saving Time Indicator
  Wetbulb,                                ! Humidity Indicating Type
  ,                                       ! Humidity Indicating Day Schedule Name
  DefaultMultipliers,                     ! Dry-Bulb Temperature Range Modifier Type
  ,                                       ! Dry-Bulb Temperature Range Modifier Schedule Name
  ASHRAETau,                              ! Solar Model Indicator
  ,                                       ! Beam Solar Day Schedule Name
  ,                                       ! Diffuse Solar Day Schedule Name
  0.484,                                  ! ASHRAE Taub {dimensionless}
  1.94;                                   ! ASHRAE Taud {dimensionless}

OS:ComponentData,
  {eb075b4d-68f2-4f58-bfba-905a764c6cf9}, ! Handle
  Component Data 1,                       ! Name
  {6a53f716-c123-4671-917c-da8e4d3f838e}, ! UUID
  {485212d8-e337-4e5f-82ef-9b0c4f07c4d9}, ! Version UUID
  1366309808,                             ! Creation Timestamp
  1366309808,                             ! Version Timestamp
  {c6537a7d-716f-46b7-9e8b-4eced92eba5c}; ! Name of Object 1

