
OS:Version,
  {a7f1bbf7-0d42-46b5-a945-a9872e709c93}, ! Handle
  0.9.3;                                  ! Version Identifier

OS:SizingPeriod:DesignDay,
  {40cf1c14-dbd4-403c-861d-600af56687ae}, ! Handle
  Columbus Metropolitan Arpt Ann Htg Wind 99.6% Condns WS=>MCDB, ! Name
  8.4,                                    ! Maximum Dry-Bulb Temperature {C}
  0,                                      ! Daily Dry-Bulb Temperature Range {deltaC}
  8.4,                                    ! Humidity Indicating Conditions at Maximum Dry-Bulb {BasedOnField A3}
  99892,                                  ! Barometric Pressure {Pa}
  9.3,                                    ! Wind Speed {m/s}
  330,                                    ! Wind Direction {deg}
  0,                                      ! Sky Clearness
  0,                                      ! Rain Indicator
  0,                                      ! Snow Indicator
  21,                                     ! Day of Month
  1,                                      ! Month
  WinterDesignDay,                        ! Day Type
  0,                                      ! Daylight Saving Time Indicator
  Wetbulb,                                ! Humidity Indicating Type
  ,                                       ! Humidity Indicating Day Schedule Name
  DefaultMultipliers,                     ! Dry-Bulb Temperature Range Modifier Type
  ,                                       ! Dry-Bulb Temperature Range Modifier Schedule Name
  ASHRAEClearSky;                         ! Solar Model Indicator

OS:ComponentData,
  {accde6ac-bda8-4e5f-a51e-3c98759eca7c}, ! Handle
  Component Data 1,                       ! Name
  {c3f7e1a1-4e41-4e60-aead-299471ee9d85}, ! UUID
  {5cf22ed6-d5db-42ea-b2cc-0b0c8de6ae4b}, ! Version UUID
  1366307003,                             ! Creation Timestamp
  1366307003,                             ! Version Timestamp
  {40cf1c14-dbd4-403c-861d-600af56687ae}; ! Name of Object 1

