
OS:Version,
  {36b27d15-415a-4d5c-8ff8-244585917589}, ! Handle
  0.9.3;                                  ! Version Identifier

OS:SizingPeriod:DesignDay,
  {898a548e-f609-4fb2-9c5c-ffd9e9730390}, ! Handle
  Bozeman Gallatin Field Ann Htg 99% Condns DB, ! Name
  -23.1,                                  ! Maximum Dry-Bulb Temperature {C}
  0,                                      ! Daily Dry-Bulb Temperature Range {deltaC}
  -23.1,                                  ! Humidity Indicating Conditions at Maximum Dry-Bulb {BasedOnField A3}
  86135,                                  ! Barometric Pressure {Pa}
  1.9,                                    ! Wind Speed {m/s}
  160,                                    ! Wind Direction {deg}
  0,                                      ! Sky Clearness
  0,                                      ! Rain Indicator
  0,                                      ! Snow Indicator
  21,                                     ! Day of Month
  12,                                     ! Month
  WinterDesignDay,                        ! Day Type
  0,                                      ! Daylight Saving Time Indicator
  Wetbulb,                                ! Humidity Indicating Type
  ,                                       ! Humidity Indicating Day Schedule Name
  DefaultMultipliers,                     ! Dry-Bulb Temperature Range Modifier Type
  ,                                       ! Dry-Bulb Temperature Range Modifier Schedule Name
  ASHRAEClearSky;                         ! Solar Model Indicator

OS:ComponentData,
  {802104f8-749e-4294-8bea-1a8871790a8f}, ! Handle
  Component Data 1,                       ! Name
  {19a665a0-e921-40cb-a5f1-694e3a7be640}, ! UUID
  {03600705-e8be-48c5-b6e5-5d30b425404c}, ! Version UUID
  1366308716,                             ! Creation Timestamp
  1366308716,                             ! Version Timestamp
  {898a548e-f609-4fb2-9c5c-ffd9e9730390}; ! Name of Object 1

