
OS:Version,
  {ea5e85f4-764a-461d-9931-04d6bb7f5f37}, ! Handle
  0.9.3;                                  ! Version Identifier

OS:SizingPeriod:DesignDay,
  {a194df7d-d0db-4cd1-b607-8fa41e52cb7d}, ! Handle
  COLUMBUS Ann Clg 2% Condns DB=>MWB,     ! Name
  30.2,                                   ! Maximum Dry-Bulb Temperature {C}
  10.5,                                   ! Daily Dry-Bulb Temperature Range {deltaC}
  22,                                     ! Humidity Indicating Conditions at Maximum Dry-Bulb {BasedOnField A3}
  98311,                                  ! Barometric Pressure {Pa}
  4.3,                                    ! Wind Speed {m/s}
  240,                                    ! Wind Direction {deg}
  0,                                      ! Sky Clearness
  0,                                      ! Rain Indicator
  0,                                      ! Snow Indicator
  21,                                     ! Day of Month
  7,                                      ! Month
  SummerDesignDay,                        ! Day Type
  0,                                      ! Daylight Saving Time Indicator
  Wetbulb,                                ! Humidity Indicating Type
  ,                                       ! Humidity Indicating Day Schedule Name
  DefaultMultipliers,                     ! Dry-Bulb Temperature Range Modifier Type
  ,                                       ! Dry-Bulb Temperature Range Modifier Schedule Name
  ASHRAETau,                              ! Solar Model Indicator
  ,                                       ! Beam Solar Day Schedule Name
  ,                                       ! Diffuse Solar Day Schedule Name
  0.484,                                  ! ASHRAE Taub {dimensionless}
  1.943;                                  ! ASHRAE Taud {dimensionless}

OS:ComponentData,
  {72f349dc-0bd4-4585-b715-8129b14a22c6}, ! Handle
  Component Data 1,                       ! Name
  {e35a463f-22a8-47c1-a542-89b4e6bfcd4d}, ! UUID
  {2f9f7467-51f5-4ae8-8a05-04b823db037d}, ! Version UUID
  1366309803,                             ! Creation Timestamp
  1366309803,                             ! Version Timestamp
  {a194df7d-d0db-4cd1-b607-8fa41e52cb7d}; ! Name of Object 1

