
OS:Version,
  {98c151ad-5012-4033-b807-c019d87d79c0}, ! Handle
  0.9.3;                                  ! Version Identifier

OS:SizingPeriod:DesignDay,
  {5803b598-18b1-497d-a152-601dbb517d49}, ! Handle
  Adak Nas Ann Clg 2% Condns DP=>MDB,     ! Name
  12.1,                                   ! Maximum Dry-Bulb Temperature {C}
  4.9,                                    ! Daily Dry-Bulb Temperature Range {deltaC}
  9.6,                                    ! Humidity Indicating Conditions at Maximum Dry-Bulb {BasedOnField A3}
  101265,                                 ! Barometric Pressure {Pa}
  4.9,                                    ! Wind Speed {m/s}
  180,                                    ! Wind Direction {deg}
  0,                                      ! Sky Clearness
  0,                                      ! Rain Indicator
  0,                                      ! Snow Indicator
  21,                                     ! Day of Month
  8,                                      ! Month
  SummerDesignDay,                        ! Day Type
  0,                                      ! Daylight Saving Time Indicator
  Dewpoint,                               ! Humidity Indicating Type
  ,                                       ! Humidity Indicating Day Schedule Name
  DefaultMultipliers,                     ! Dry-Bulb Temperature Range Modifier Type
  ,                                       ! Dry-Bulb Temperature Range Modifier Schedule Name
  ASHRAETau,                              ! Solar Model Indicator
  ,                                       ! Beam Solar Day Schedule Name
  ,                                       ! Diffuse Solar Day Schedule Name
  0.394,                                  ! ASHRAE Taub {dimensionless}
  2.21;                                   ! ASHRAE Taud {dimensionless}

OS:ComponentData,
  {03d71694-ee27-4f03-99ba-fd40a4ce47c4}, ! Handle
  Component Data 1,                       ! Name
  {d50cc18b-755b-4cd9-8867-1bedc7f84214}, ! UUID
  {511afc33-9a16-4163-ab4e-99c052d899ac}, ! Version UUID
  1364004397,                             ! Creation Timestamp
  1364004397,                             ! Version Timestamp
  {5803b598-18b1-497d-a152-601dbb517d49}; ! Name of Object 1

