
OS:Version,
  {4ab237d1-8f3b-4e7f-a0d7-9bffb69f1192}, ! Handle
  0.9.3;                                  ! Version Identifier

OS:SizingPeriod:DesignDay,
  {7052eb90-ea7e-44e7-84af-4ea7b950ef24}, ! Handle
  CAPE_HATTERAS Ann Clg .4% Condns WB=>MDB, ! Name
  28.8,                                   ! Maximum Dry-Bulb Temperature {C}
  4.4,                                    ! Daily Dry-Bulb Temperature Range {deltaC}
  26.9,                                   ! Humidity Indicating Conditions at Maximum Dry-Bulb {BasedOnField A3}
  101301,                                 ! Barometric Pressure {Pa}
  4.4,                                    ! Wind Speed {m/s}
  0,                                      ! Wind Direction {deg}
  0,                                      ! Sky Clearness
  0,                                      ! Rain Indicator
  0,                                      ! Snow Indicator
  21,                                     ! Day of Month
  7,                                      ! Month
  SummerDesignDay,                        ! Day Type
  0,                                      ! Daylight Saving Time Indicator
  Wetbulb,                                ! Humidity Indicating Type
  ,                                       ! Humidity Indicating Day Schedule Name
  DefaultMultipliers,                     ! Dry-Bulb Temperature Range Modifier Type
  ,                                       ! Dry-Bulb Temperature Range Modifier Schedule Name
  ASHRAETau,                              ! Solar Model Indicator
  ,                                       ! Beam Solar Day Schedule Name
  ,                                       ! Diffuse Solar Day Schedule Name
  0.57,                                   ! ASHRAE Taub {dimensionless}
  1.801;                                  ! ASHRAE Taud {dimensionless}

