
OS:Version,
  {c695d063-f7f9-4cf6-a26a-a56c25420c31}, ! Handle
  0.9.3;                                  ! Version Identifier

OS:SizingPeriod:DesignDay,
  {e360ca32-306a-4f8a-9583-ccb2bf777f7c}, ! Handle
  Atlanta Hartsfield Intl Ap Ann Clg 2% Condns Enth=>MDB, ! Name
  29.7,                                   ! Maximum Dry-Bulb Temperature {C}
  9.5,                                    ! Daily Dry-Bulb Temperature Range {deltaC}
  73500,                                  ! Humidity Indicating Conditions at Maximum Dry-Bulb {BasedOnField A3}
  97679,                                  ! Barometric Pressure {Pa}
  4,                                      ! Wind Speed {m/s}
  300,                                    ! Wind Direction {deg}
  0,                                      ! Sky Clearness
  0,                                      ! Rain Indicator
  0,                                      ! Snow Indicator
  21,                                     ! Day of Month
  7,                                      ! Month
  SummerDesignDay,                        ! Day Type
  0,                                      ! Daylight Saving Time Indicator
  Enthalpy,                               ! Humidity Indicating Type
  ,                                       ! Humidity Indicating Day Schedule Name
  DefaultMultipliers,                     ! Dry-Bulb Temperature Range Modifier Type
  ,                                       ! Dry-Bulb Temperature Range Modifier Schedule Name
  ASHRAETau,                              ! Solar Model Indicator
  ,                                       ! Beam Solar Day Schedule Name
  ,                                       ! Diffuse Solar Day Schedule Name
  0.556,                                  ! ASHRAE Taub {dimensionless}
  1.779;                                  ! ASHRAE Taud {dimensionless}

OS:ComponentData,
  {f4116c08-6ca6-4805-9f3d-74669bd7b00a}, ! Handle
  Component Data 1,                       ! Name
  {36244205-4cfc-4508-a534-e228a37970f5}, ! UUID
  {79dd8d19-978d-40ee-a0d3-705011c03a14}, ! Version UUID
  1366306979,                             ! Creation Timestamp
  1366306979,                             ! Version Timestamp
  {e360ca32-306a-4f8a-9583-ccb2bf777f7c}; ! Name of Object 1

