
OS:Version,
  {55b7cb6e-7f3b-4554-b03d-4edc035916ae}, ! Handle
  0.9.3;                                  ! Version Identifier

OS:SizingPeriod:DesignDay,
  {428028eb-39b8-4981-989b-9a029a5030a5}, ! Handle
  Fort Smith Regional Ap Ann Clg .4% Condns WB=>MDB, ! Name
  33.6,                                   ! Maximum Dry-Bulb Temperature {C}
  11.5,                                   ! Daily Dry-Bulb Temperature Range {deltaC}
  26.4,                                   ! Humidity Indicating Conditions at Maximum Dry-Bulb {BasedOnField A3}
  99690,                                  ! Barometric Pressure {Pa}
  3.7,                                    ! Wind Speed {m/s}
  230,                                    ! Wind Direction {deg}
  0,                                      ! Sky Clearness
  0,                                      ! Rain Indicator
  0,                                      ! Snow Indicator
  21,                                     ! Day of Month
  7,                                      ! Month
  SummerDesignDay,                        ! Day Type
  0,                                      ! Daylight Saving Time Indicator
  Wetbulb,                                ! Humidity Indicating Type
  ,                                       ! Humidity Indicating Day Schedule Name
  DefaultMultipliers,                     ! Dry-Bulb Temperature Range Modifier Type
  ,                                       ! Dry-Bulb Temperature Range Modifier Schedule Name
  ASHRAETau,                              ! Solar Model Indicator
  ,                                       ! Beam Solar Day Schedule Name
  ,                                       ! Diffuse Solar Day Schedule Name
  0.49,                                   ! ASHRAE Taub {dimensionless}
  1.983;                                  ! ASHRAE Taud {dimensionless}

OS:ComponentData,
  {c2fc61ce-2628-4a50-bd77-9f1218e3eabe}, ! Handle
  Component Data 1,                       ! Name
  {3c373cfd-cb79-4f67-9579-69d0a8863207}, ! UUID
  {850cdeb7-4e75-4769-a5a8-e222bc397a4c}, ! Version UUID
  1366306212,                             ! Creation Timestamp
  1366306212,                             ! Version Timestamp
  {428028eb-39b8-4981-989b-9a029a5030a5}; ! Name of Object 1

