
OS:Version,
  {7ec049eb-78be-4954-b48a-bda8493f5afd}, ! Handle
  0.9.3;                                  ! Version Identifier

OS:SizingPeriod:DesignDay,
  {e60a718c-d40a-444d-ac5f-c07792d48db1}, ! Handle
  BISMARCK Ann Clg .4% Condns DB=>MWB,    ! Name
  34.4,                                   ! Maximum Dry-Bulb Temperature {C}
  14.2,                                   ! Daily Dry-Bulb Temperature Range {deltaC}
  20.8,                                   ! Humidity Indicating Conditions at Maximum Dry-Bulb {BasedOnField A3}
  95438,                                  ! Barometric Pressure {Pa}
  6,                                      ! Wind Speed {m/s}
  160,                                    ! Wind Direction {deg}
  0,                                      ! Sky Clearness
  0,                                      ! Rain Indicator
  0,                                      ! Snow Indicator
  21,                                     ! Day of Month
  7,                                      ! Month
  SummerDesignDay,                        ! Day Type
  0,                                      ! Daylight Saving Time Indicator
  Wetbulb,                                ! Humidity Indicating Type
  ,                                       ! Humidity Indicating Day Schedule Name
  DefaultMultipliers,                     ! Dry-Bulb Temperature Range Modifier Type
  ,                                       ! Dry-Bulb Temperature Range Modifier Schedule Name
  ASHRAETau,                              ! Solar Model Indicator
  ,                                       ! Beam Solar Day Schedule Name
  ,                                       ! Diffuse Solar Day Schedule Name
  0.393,                                  ! ASHRAE Taub {dimensionless}
  2.249;                                  ! ASHRAE Taud {dimensionless}

OS:ComponentData,
  {bc60cb48-1540-4f7d-8d23-07a403f865a8}, ! Handle
  Component Data 1,                       ! Name
  {19f4b190-08f5-4975-8856-af0b406a95c1}, ! UUID
  {0c6b995a-4735-4148-8e5d-9037ba75076b}, ! Version UUID
  1366308997,                             ! Creation Timestamp
  1366308997,                             ! Version Timestamp
  {e60a718c-d40a-444d-ac5f-c07792d48db1}; ! Name of Object 1

