
OS:Version,
  {df95f3bb-4fd6-4580-b41f-e3f520faf19e}, ! Handle
  0.9.3;                                  ! Version Identifier

OS:SizingPeriod:DesignDay,
  {9672eb22-268b-4fb3-bf8e-955ab55c99d0}, ! Handle
  HONOLULU Ann Clg 1% Condns WB=>MDB,     ! Name
  29,                                     ! Maximum Dry-Bulb Temperature {C}
  7.1,                                    ! Daily Dry-Bulb Temperature Range {deltaC}
  24.6,                                   ! Humidity Indicating Conditions at Maximum Dry-Bulb {BasedOnField A3}
  101265,                                 ! Barometric Pressure {Pa}
  6.7,                                    ! Wind Speed {m/s}
  60,                                     ! Wind Direction {deg}
  0,                                      ! Sky Clearness
  0,                                      ! Rain Indicator
  0,                                      ! Snow Indicator
  21,                                     ! Day of Month
  8,                                      ! Month
  SummerDesignDay,                        ! Day Type
  0,                                      ! Daylight Saving Time Indicator
  Wetbulb,                                ! Humidity Indicating Type
  ,                                       ! Humidity Indicating Day Schedule Name
  DefaultMultipliers,                     ! Dry-Bulb Temperature Range Modifier Type
  ,                                       ! Dry-Bulb Temperature Range Modifier Schedule Name
  ASHRAETau,                              ! Solar Model Indicator
  ,                                       ! Beam Solar Day Schedule Name
  ,                                       ! Diffuse Solar Day Schedule Name
  0.382,                                  ! ASHRAE Taub {dimensionless}
  2.521;                                  ! ASHRAE Taud {dimensionless}

OS:ComponentData,
  {3afd7a86-cec0-4993-bfd4-a2a2a41a598b}, ! Handle
  Component Data 1,                       ! Name
  {c72599b5-f7b5-4c28-8d07-0f9a74e2a2be}, ! UUID
  {dd54ca96-0231-4bd4-9b5f-5a4893435d64}, ! Version UUID
  1366307087,                             ! Creation Timestamp
  1366307087,                             ! Version Timestamp
  {9672eb22-268b-4fb3-bf8e-955ab55c99d0}; ! Name of Object 1

