
OS:Version,
  {a791fa0d-cc41-4af8-a9a0-03310c8df228}, ! Handle
  0.9.3;                                  ! Version Identifier

OS:SizingPeriod:DesignDay,
  {4f9cae89-440b-4281-afeb-07e49e530154}, ! Handle
  Kalamazoo Battle Cr Ann Clg .4% Condns DP=>MDB, ! Name
  27.4,                                   ! Maximum Dry-Bulb Temperature {C}
  11.1,                                   ! Daily Dry-Bulb Temperature Range {deltaC}
  22.8,                                   ! Humidity Indicating Conditions at Maximum Dry-Bulb {BasedOnField A3}
  98088,                                  ! Barometric Pressure {Pa}
  4.8,                                    ! Wind Speed {m/s}
  210,                                    ! Wind Direction {deg}
  0,                                      ! Sky Clearness
  0,                                      ! Rain Indicator
  0,                                      ! Snow Indicator
  21,                                     ! Day of Month
  7,                                      ! Month
  SummerDesignDay,                        ! Day Type
  0,                                      ! Daylight Saving Time Indicator
  Dewpoint,                               ! Humidity Indicating Type
  ,                                       ! Humidity Indicating Day Schedule Name
  DefaultMultipliers,                     ! Dry-Bulb Temperature Range Modifier Type
  ,                                       ! Dry-Bulb Temperature Range Modifier Schedule Name
  ASHRAETau,                              ! Solar Model Indicator
  ,                                       ! Beam Solar Day Schedule Name
  ,                                       ! Diffuse Solar Day Schedule Name
  0.424,                                  ! ASHRAE Taub {dimensionless}
  2.175;                                  ! ASHRAE Taud {dimensionless}

OS:ComponentData,
  {3a60c1a9-78db-405f-b7c0-b9aba1cca073}, ! Handle
  Component Data 1,                       ! Name
  {1d7972d7-da50-4f5e-b301-91737539e1f1}, ! UUID
  {2f632058-46d6-46c5-8694-3e32efa4d39f}, ! Version UUID
  1366308049,                             ! Creation Timestamp
  1366308049,                             ! Version Timestamp
  {4f9cae89-440b-4281-afeb-07e49e530154}; ! Name of Object 1

