
OS:Version,
  {3ee9bdac-3fdb-4ab0-9549-253afc40e8d0}, ! Handle
  0.9.3;                                  ! Version Identifier

OS:SizingPeriod:DesignDay,
  {94ce49a8-36e8-4197-ae7e-0b14e6e572a6}, ! Handle
  Albany Dougherty County Ap Ann Hum_n 99.6% Condns DP=>MCDB, ! Name
  2.4,                                    ! Maximum Dry-Bulb Temperature {C}
  0,                                      ! Daily Dry-Bulb Temperature Range {deltaC}
  -12.3,                                  ! Humidity Indicating Conditions at Maximum Dry-Bulb {BasedOnField A3}
  100630,                                 ! Barometric Pressure {Pa}
  1.8,                                    ! Wind Speed {m/s}
  330,                                    ! Wind Direction {deg}
  0,                                      ! Sky Clearness
  0,                                      ! Rain Indicator
  0,                                      ! Snow Indicator
  21,                                     ! Day of Month
  1,                                      ! Month
  WinterDesignDay,                        ! Day Type
  0,                                      ! Daylight Saving Time Indicator
  Dewpoint,                               ! Humidity Indicating Type
  ,                                       ! Humidity Indicating Day Schedule Name
  DefaultMultipliers,                     ! Dry-Bulb Temperature Range Modifier Type
  ,                                       ! Dry-Bulb Temperature Range Modifier Schedule Name
  ASHRAEClearSky;                         ! Solar Model Indicator

