
OS:Version,
  {fcef9ebf-94c8-4fe4-949a-61ecf515bcf0}, ! Handle
  0.9.3;                                  ! Version Identifier

OS:SizingPeriod:DesignDay,
  {853d0c3f-41b1-4750-abe4-00df2e999daf}, ! Handle
  Kaiser Mem  Awos Ann Clg 2% Condns DP=>MDB, ! Name
  28.2,                                   ! Maximum Dry-Bulb Temperature {C}
  11.7,                                   ! Daily Dry-Bulb Temperature Range {deltaC}
  22.5,                                   ! Humidity Indicating Conditions at Maximum Dry-Bulb {BasedOnField A3}
  98182,                                  ! Barometric Pressure {Pa}
  3.7,                                    ! Wind Speed {m/s}
  250,                                    ! Wind Direction {deg}
  0,                                      ! Sky Clearness
  0,                                      ! Rain Indicator
  0,                                      ! Snow Indicator
  21,                                     ! Day of Month
  7,                                      ! Month
  SummerDesignDay,                        ! Day Type
  0,                                      ! Daylight Saving Time Indicator
  Dewpoint,                               ! Humidity Indicating Type
  ,                                       ! Humidity Indicating Day Schedule Name
  DefaultMultipliers,                     ! Dry-Bulb Temperature Range Modifier Type
  ,                                       ! Dry-Bulb Temperature Range Modifier Schedule Name
  ASHRAETau,                              ! Solar Model Indicator
  ,                                       ! Beam Solar Day Schedule Name
  ,                                       ! Diffuse Solar Day Schedule Name
  0.456,                                  ! ASHRAE Taub {dimensionless}
  2.075;                                  ! ASHRAE Taud {dimensionless}

OS:ComponentData,
  {afe7da8f-5fed-4456-b4e4-90795869c12d}, ! Handle
  Component Data 1,                       ! Name
  {c34f86fd-5a51-4dd2-b3c9-7a1832db4b6f}, ! UUID
  {ed4db38b-5684-456b-8295-f575527a2774}, ! Version UUID
  1366308515,                             ! Creation Timestamp
  1366308515,                             ! Version Timestamp
  {853d0c3f-41b1-4750-abe4-00df2e999daf}; ! Name of Object 1

