
OS:Version,
  {259364b6-3547-4912-af05-d47c126cbd2a}, ! Handle
  0.9.3;                                  ! Version Identifier

OS:SizingPeriod:DesignDay,
  {386bc379-4ba0-4ced-8fb1-a5508d880d59}, ! Handle
  Joslin Fld Magic Va  Twin Fal Ann Clg 1% Condns DB=>MWB, ! Name
  32.8,                                   ! Maximum Dry-Bulb Temperature {C}
  15.7,                                   ! Daily Dry-Bulb Temperature Range {deltaC}
  17.3,                                   ! Humidity Indicating Conditions at Maximum Dry-Bulb {BasedOnField A3}
  87716,                                  ! Barometric Pressure {Pa}
  4,                                      ! Wind Speed {m/s}
  320,                                    ! Wind Direction {deg}
  0,                                      ! Sky Clearness
  0,                                      ! Rain Indicator
  0,                                      ! Snow Indicator
  21,                                     ! Day of Month
  7,                                      ! Month
  SummerDesignDay,                        ! Day Type
  0,                                      ! Daylight Saving Time Indicator
  Wetbulb,                                ! Humidity Indicating Type
  ,                                       ! Humidity Indicating Day Schedule Name
  DefaultMultipliers,                     ! Dry-Bulb Temperature Range Modifier Type
  ,                                       ! Dry-Bulb Temperature Range Modifier Schedule Name
  ASHRAETau,                              ! Solar Model Indicator
  ,                                       ! Beam Solar Day Schedule Name
  ,                                       ! Diffuse Solar Day Schedule Name
  0.42,                                   ! ASHRAE Taub {dimensionless}
  1.979;                                  ! ASHRAE Taud {dimensionless}

OS:ComponentData,
  {20eda29a-bd66-4ca1-a2bd-6855b1e6552b}, ! Handle
  Component Data 1,                       ! Name
  {a6af281d-e1cf-46ea-ba62-1ace4e91b609}, ! UUID
  {912c5199-ce16-4615-b4bf-2e64dc76991b}, ! Version UUID
  1366307315,                             ! Creation Timestamp
  1366307315,                             ! Version Timestamp
  {386bc379-4ba0-4ced-8fb1-a5508d880d59}; ! Name of Object 1

