
OS:Version,
  {5de59a41-16d7-423b-9e69-1cf86f229f4b}, ! Handle
  0.9.3;                                  ! Version Identifier

OS:SizingPeriod:DesignDay,
  {e12610c4-4b2f-4b82-b9b6-aa3ef46e34dd}, ! Handle
  Dubois Faa Ap Ann Hum_n 99% Condns DP=>MCDB, ! Name
  -13.7,                                  ! Maximum Dry-Bulb Temperature {C}
  0,                                      ! Daily Dry-Bulb Temperature Range {deltaC}
  -19.4,                                  ! Humidity Indicating Conditions at Maximum Dry-Bulb {BasedOnField A3}
  94856,                                  ! Barometric Pressure {Pa}
  4.6,                                    ! Wind Speed {m/s}
  280,                                    ! Wind Direction {deg}
  0,                                      ! Sky Clearness
  0,                                      ! Rain Indicator
  0,                                      ! Snow Indicator
  21,                                     ! Day of Month
  1,                                      ! Month
  WinterDesignDay,                        ! Day Type
  0,                                      ! Daylight Saving Time Indicator
  Dewpoint,                               ! Humidity Indicating Type
  ,                                       ! Humidity Indicating Day Schedule Name
  DefaultMultipliers,                     ! Dry-Bulb Temperature Range Modifier Type
  ,                                       ! Dry-Bulb Temperature Range Modifier Schedule Name
  ASHRAEClearSky;                         ! Solar Model Indicator

OS:ComponentData,
  {198bf58e-7524-4de5-948a-25aca07a6bf8}, ! Handle
  Component Data 1,                       ! Name
  {f01d8333-302f-44ef-ac93-f2654b67112c}, ! UUID
  {fec37478-3829-4880-9137-62ea0e32d94b}, ! Version UUID
  1366310159,                             ! Creation Timestamp
  1366310159,                             ! Version Timestamp
  {e12610c4-4b2f-4b82-b9b6-aa3ef46e34dd}; ! Name of Object 1

