
OS:Version,
  {452415a5-952f-4046-bcc5-70a9a958c1fc}, ! Handle
  0.9.3;                                  ! Version Identifier

OS:SizingPeriod:DesignDay,
  {205b5761-3a64-4c34-8354-88faaccd245a}, ! Handle
  EL_PASO Ann Clg .4% Condns WB=>MDB,     ! Name
  30.1,                                   ! Maximum Dry-Bulb Temperature {C}
  13,                                     ! Daily Dry-Bulb Temperature Range {deltaC}
  21.3,                                   ! Humidity Indicating Conditions at Maximum Dry-Bulb {BasedOnField A3}
  87780,                                  ! Barometric Pressure {Pa}
  3.9,                                    ! Wind Speed {m/s}
  280,                                    ! Wind Direction {deg}
  0,                                      ! Sky Clearness
  0,                                      ! Rain Indicator
  0,                                      ! Snow Indicator
  21,                                     ! Day of Month
  7,                                      ! Month
  SummerDesignDay,                        ! Day Type
  0,                                      ! Daylight Saving Time Indicator
  Wetbulb,                                ! Humidity Indicating Type
  ,                                       ! Humidity Indicating Day Schedule Name
  DefaultMultipliers,                     ! Dry-Bulb Temperature Range Modifier Type
  ,                                       ! Dry-Bulb Temperature Range Modifier Schedule Name
  ASHRAETau,                              ! Solar Model Indicator
  ,                                       ! Beam Solar Day Schedule Name
  ,                                       ! Diffuse Solar Day Schedule Name
  0.605,                                  ! ASHRAE Taub {dimensionless}
  1.547;                                  ! ASHRAE Taud {dimensionless}

OS:ComponentData,
  {d755d768-ed46-49ca-89ea-8694167cdd31}, ! Handle
  Component Data 1,                       ! Name
  {5105740d-96ad-468b-8cb9-ea1ff7705ab5}, ! UUID
  {c271dfd3-5bda-45ab-9891-049caddc716b}, ! Version UUID
  1366310684,                             ! Creation Timestamp
  1366310684,                             ! Version Timestamp
  {205b5761-3a64-4c34-8354-88faaccd245a}; ! Name of Object 1

