
OS:Version,
  {d5725339-6998-434e-ac62-6533f867e486}, ! Handle
  0.9.3;                                  ! Version Identifier

OS:SizingPeriod:DesignDay,
  {9e0306e5-86c3-485c-a46f-578ce823c007}, ! Handle
  ATHENS Ann Clg 2% Condns DP=>MDB,       ! Name
  26.8,                                   ! Maximum Dry-Bulb Temperature {C}
  10.8,                                   ! Daily Dry-Bulb Temperature Range {deltaC}
  22.9,                                   ! Humidity Indicating Conditions at Maximum Dry-Bulb {BasedOnField A3}
  98428,                                  ! Barometric Pressure {Pa}
  3.5,                                    ! Wind Speed {m/s}
  270,                                    ! Wind Direction {deg}
  0,                                      ! Sky Clearness
  0,                                      ! Rain Indicator
  0,                                      ! Snow Indicator
  21,                                     ! Day of Month
  7,                                      ! Month
  SummerDesignDay,                        ! Day Type
  0,                                      ! Daylight Saving Time Indicator
  Dewpoint,                               ! Humidity Indicating Type
  ,                                       ! Humidity Indicating Day Schedule Name
  DefaultMultipliers,                     ! Dry-Bulb Temperature Range Modifier Type
  ,                                       ! Dry-Bulb Temperature Range Modifier Schedule Name
  ASHRAETau,                              ! Solar Model Indicator
  ,                                       ! Beam Solar Day Schedule Name
  ,                                       ! Diffuse Solar Day Schedule Name
  0.539,                                  ! ASHRAE Taub {dimensionless}
  1.828;                                  ! ASHRAE Taud {dimensionless}

OS:ComponentData,
  {e8f177f2-3865-4d61-9a54-9fdcf27a4f80}, ! Handle
  Component Data 1,                       ! Name
  {8c7ca5f5-60c1-417c-8767-022c5ff466b1}, ! UUID
  {3cf7302f-0696-4d0f-8f19-fe394605e07d}, ! Version UUID
  1366306970,                             ! Creation Timestamp
  1366306970,                             ! Version Timestamp
  {9e0306e5-86c3-485c-a46f-578ce823c007}; ! Name of Object 1

