
OS:Version,
  {3637549e-34e5-4c23-aecc-2caa7c372a90}, ! Handle
  0.9.3;                                  ! Version Identifier

OS:SizingPeriod:DesignDay,
  {1553c4be-1017-440d-b263-3b310992383d}, ! Handle
  Lake Hood Seaplane Ann Hum_n 99.6% Condns DP=>MCDB, ! Name
  -20.4,                                  ! Maximum Dry-Bulb Temperature {C}
  0,                                      ! Daily Dry-Bulb Temperature Range {deltaC}
  -27.5,                                  ! Humidity Indicating Conditions at Maximum Dry-Bulb {BasedOnField A3}
  101061,                                 ! Barometric Pressure {Pa}
  1.1,                                    ! Wind Speed {m/s}
  350,                                    ! Wind Direction {deg}
  0,                                      ! Sky Clearness
  0,                                      ! Rain Indicator
  0,                                      ! Snow Indicator
  21,                                     ! Day of Month
  1,                                      ! Month
  WinterDesignDay,                        ! Day Type
  0,                                      ! Daylight Saving Time Indicator
  Dewpoint,                               ! Humidity Indicating Type
  ,                                       ! Humidity Indicating Day Schedule Name
  DefaultMultipliers,                     ! Dry-Bulb Temperature Range Modifier Type
  ,                                       ! Dry-Bulb Temperature Range Modifier Schedule Name
  ASHRAEClearSky;                         ! Solar Model Indicator

OS:ComponentData,
  {a076e52f-334d-46c6-8ffb-87e4f68b3ac5}, ! Handle
  Component Data 1,                       ! Name
  {92ec3c28-40a1-464b-8f29-3e8300fd1fd5}, ! UUID
  {f3b96141-25e2-4fcf-bf3a-8d018cf62079}, ! Version UUID
  1366304695,                             ! Creation Timestamp
  1366304695,                             ! Version Timestamp
  {1553c4be-1017-440d-b263-3b310992383d}; ! Name of Object 1

