
OS:Version,
  {1346293e-c9b6-4f27-950f-45262a3ddedd}, ! Handle
  0.9.3;                                  ! Version Identifier

OS:SizingPeriod:DesignDay,
  {f1c4cdfb-69e1-4402-86d6-85d74dfda6f1}, ! Handle
  Hill City Municipal Ap Ann Clg .4% Condns Enth=>MDB, ! Name
  32,                                     ! Maximum Dry-Bulb Temperature {C}
  14.5,                                   ! Daily Dry-Bulb Temperature Range {deltaC}
  77300,                                  ! Humidity Indicating Conditions at Maximum Dry-Bulb {BasedOnField A3}
  93565,                                  ! Barometric Pressure {Pa}
  6.5,                                    ! Wind Speed {m/s}
  180,                                    ! Wind Direction {deg}
  0,                                      ! Sky Clearness
  0,                                      ! Rain Indicator
  0,                                      ! Snow Indicator
  21,                                     ! Day of Month
  7,                                      ! Month
  SummerDesignDay,                        ! Day Type
  0,                                      ! Daylight Saving Time Indicator
  Enthalpy,                               ! Humidity Indicating Type
  ,                                       ! Humidity Indicating Day Schedule Name
  DefaultMultipliers,                     ! Dry-Bulb Temperature Range Modifier Type
  ,                                       ! Dry-Bulb Temperature Range Modifier Schedule Name
  ASHRAETau,                              ! Solar Model Indicator
  ,                                       ! Beam Solar Day Schedule Name
  ,                                       ! Diffuse Solar Day Schedule Name
  0.439,                                  ! ASHRAE Taub {dimensionless}
  2.059;                                  ! ASHRAE Taud {dimensionless}

OS:ComponentData,
  {8b6f9038-e52c-4f67-aa8a-a3e351645e73}, ! Handle
  Component Data 1,                       ! Name
  {f6d03390-83dc-467b-b9d9-2fc47f3793b7}, ! UUID
  {da03ec70-0527-4a5d-b670-890200ca4e17}, ! Version UUID
  1366307550,                             ! Creation Timestamp
  1366307550,                             ! Version Timestamp
  {f1c4cdfb-69e1-4402-86d6-85d74dfda6f1}; ! Name of Object 1

