
OS:Version,
  {f97a6982-11e7-4852-8bb6-c37c72d79ed5}, ! Handle
  0.9.3;                                  ! Version Identifier

OS:SizingPeriod:DesignDay,
  {063368db-4218-40b4-a41a-21ace82f9f9b}, ! Handle
  Atlanta Ann Clg .4% Condns WB=>MDB,     ! Name
  31.2,                                   ! Maximum Dry-Bulb Temperature {C}
  9.5,                                    ! Daily Dry-Bulb Temperature Range {deltaC}
  25.1,                                   ! Humidity Indicating Conditions at Maximum Dry-Bulb {BasedOnField A3}
  97598,                                  ! Barometric Pressure {Pa}
  4,                                      ! Wind Speed {m/s}
  300,                                    ! Wind Direction {deg}
  0,                                      ! Sky Clearness
  0,                                      ! Rain Indicator
  0,                                      ! Snow Indicator
  21,                                     ! Day of Month
  7,                                      ! Month
  SummerDesignDay,                        ! Day Type
  0,                                      ! Daylight Saving Time Indicator
  Wetbulb,                                ! Humidity Indicating Type
  ,                                       ! Humidity Indicating Day Schedule Name
  DefaultMultipliers,                     ! Dry-Bulb Temperature Range Modifier Type
  ,                                       ! Dry-Bulb Temperature Range Modifier Schedule Name
  ASHRAETau,                              ! Solar Model Indicator
  ,                                       ! Beam Solar Day Schedule Name
  ,                                       ! Diffuse Solar Day Schedule Name
  0.556,                                  ! ASHRAE Taub {dimensionless}
  1.779;                                  ! ASHRAE Taud {dimensionless}

OS:ComponentData,
  {866d6630-f0b3-44bf-b276-bcd41c9cdec2}, ! Handle
  Component Data 1,                       ! Name
  {d712a614-94c6-4a2c-abfd-ba82ffd7bc15}, ! UUID
  {d91fb550-8483-48ac-bfe0-bc8de5b9f76d}, ! Version UUID
  1366306975,                             ! Creation Timestamp
  1366306975,                             ! Version Timestamp
  {063368db-4218-40b4-a41a-21ace82f9f9b}; ! Name of Object 1

