
OS:Version,
  {cf5f2c37-1442-4bfc-af52-ef692823db82}, ! Handle
  0.9.3;                                  ! Version Identifier

OS:SizingPeriod:DesignDay,
  {9ffed1d3-5123-4c8a-a8f4-6ce137f27d97}, ! Handle
  GREENSBORO Ann Clg .4% Condns WB=>MDB,  ! Name
  30.9,                                   ! Maximum Dry-Bulb Temperature {C}
  9.9,                                    ! Daily Dry-Bulb Temperature Range {deltaC}
  25,                                     ! Humidity Indicating Conditions at Maximum Dry-Bulb {BasedOnField A3}
  98123,                                  ! Barometric Pressure {Pa}
  3.4,                                    ! Wind Speed {m/s}
  230,                                    ! Wind Direction {deg}
  0,                                      ! Sky Clearness
  0,                                      ! Rain Indicator
  0,                                      ! Snow Indicator
  21,                                     ! Day of Month
  7,                                      ! Month
  SummerDesignDay,                        ! Day Type
  0,                                      ! Daylight Saving Time Indicator
  Wetbulb,                                ! Humidity Indicating Type
  ,                                       ! Humidity Indicating Day Schedule Name
  DefaultMultipliers,                     ! Dry-Bulb Temperature Range Modifier Type
  ,                                       ! Dry-Bulb Temperature Range Modifier Schedule Name
  ASHRAETau,                              ! Solar Model Indicator
  ,                                       ! Beam Solar Day Schedule Name
  ,                                       ! Diffuse Solar Day Schedule Name
  0.557,                                  ! ASHRAE Taub {dimensionless}
  1.757;                                  ! ASHRAE Taud {dimensionless}

OS:ComponentData,
  {4275c572-8772-4d48-ac69-57bea39296a6}, ! Handle
  Component Data 1,                       ! Name
  {47963a51-10ff-4017-a31d-d798613d83b1}, ! UUID
  {cc5057b3-a676-462d-b839-71f0188d5c30}, ! Version UUID
  1366308936,                             ! Creation Timestamp
  1366308936,                             ! Version Timestamp
  {9ffed1d3-5123-4c8a-a8f4-6ce137f27d97}; ! Name of Object 1

