
OS:Version,
  {0e1edde0-b9f7-4735-afd2-1f90ab9717d5}, ! Handle
  0.9.3;                                  ! Version Identifier

OS:SizingPeriod:DesignDay,
  {1c8afad7-a334-4846-a068-9f449f943715}, ! Handle
  Hot Springs Ingalls Ann Clg 2% Condns Enth=>MDB, ! Name
  23.9,                                   ! Maximum Dry-Bulb Temperature {C}
  7.7,                                    ! Daily Dry-Bulb Temperature Range {deltaC}
  64000,                                  ! Humidity Indicating Conditions at Maximum Dry-Bulb {BasedOnField A3}
  88187,                                  ! Barometric Pressure {Pa}
  3.5,                                    ! Wind Speed {m/s}
  280,                                    ! Wind Direction {deg}
  0,                                      ! Sky Clearness
  0,                                      ! Rain Indicator
  0,                                      ! Snow Indicator
  21,                                     ! Day of Month
  7,                                      ! Month
  SummerDesignDay,                        ! Day Type
  0,                                      ! Daylight Saving Time Indicator
  Enthalpy,                               ! Humidity Indicating Type
  ,                                       ! Humidity Indicating Day Schedule Name
  DefaultMultipliers,                     ! Dry-Bulb Temperature Range Modifier Type
  ,                                       ! Dry-Bulb Temperature Range Modifier Schedule Name
  ASHRAETau,                              ! Solar Model Indicator
  ,                                       ! Beam Solar Day Schedule Name
  ,                                       ! Diffuse Solar Day Schedule Name
  0.445,                                  ! ASHRAE Taub {dimensionless}
  2.005;                                  ! ASHRAE Taud {dimensionless}

OS:ComponentData,
  {7eea857e-c922-4193-ac0d-278dd803edb8}, ! Handle
  Component Data 1,                       ! Name
  {30bb7a8d-7e97-49c0-b587-330aa44928d0}, ! UUID
  {f33bb5a9-59d2-44f9-af39-f3e7698361ed}, ! Version UUID
  1366311067,                             ! Creation Timestamp
  1366311067,                             ! Version Timestamp
  {1c8afad7-a334-4846-a068-9f449f943715}; ! Name of Object 1

