
OS:Version,
  {5b3e22f1-b956-4a8d-8374-33943f16353f}, ! Handle
  0.9.3;                                  ! Version Identifier

OS:SizingPeriod:DesignDay,
  {54eea638-9ad0-4c51-a589-3e709d86d293}, ! Handle
  Cut Bank Ann Htg Wind 99% Condns WS=>MCDB, ! Name
  5,                                      ! Maximum Dry-Bulb Temperature {C}
  0,                                      ! Daily Dry-Bulb Temperature Range {deltaC}
  5,                                      ! Humidity Indicating Conditions at Maximum Dry-Bulb {BasedOnField A3}
  87983,                                  ! Barometric Pressure {Pa}
  20.1,                                   ! Wind Speed {m/s}
  350,                                    ! Wind Direction {deg}
  0,                                      ! Sky Clearness
  0,                                      ! Rain Indicator
  0,                                      ! Snow Indicator
  21,                                     ! Day of Month
  1,                                      ! Month
  WinterDesignDay,                        ! Day Type
  0,                                      ! Daylight Saving Time Indicator
  Wetbulb,                                ! Humidity Indicating Type
  ,                                       ! Humidity Indicating Day Schedule Name
  DefaultMultipliers,                     ! Dry-Bulb Temperature Range Modifier Type
  ,                                       ! Dry-Bulb Temperature Range Modifier Schedule Name
  ASHRAEClearSky;                         ! Solar Model Indicator

OS:ComponentData,
  {5246a3d5-a15c-45e1-a320-4d8bab055975}, ! Handle
  Component Data 1,                       ! Name
  {b93bb267-83a3-46ad-8bad-a165cdcc498c}, ! UUID
  {c0efd981-8231-48a1-9027-743b9b7d5900}, ! Version UUID
  1366308739,                             ! Creation Timestamp
  1366308739,                             ! Version Timestamp
  {54eea638-9ad0-4c51-a589-3e709d86d293}; ! Name of Object 1

