
OS:Version,
  {44762b0f-e8a7-4be5-84d1-697f1235a339}, ! Handle
  0.9.3;                                  ! Version Identifier

OS:SizingPeriod:DesignDay,
  {2c43b739-753a-4248-848b-5db99b38d39d}, ! Handle
  COLUMBIA Ann Clg 1% Condns WB=>MDB,     ! Name
  31.1,                                   ! Maximum Dry-Bulb Temperature {C}
  11,                                     ! Daily Dry-Bulb Temperature Range {deltaC}
  25.4,                                   ! Humidity Indicating Conditions at Maximum Dry-Bulb {BasedOnField A3}
  98123,                                  ! Barometric Pressure {Pa}
  4.4,                                    ! Wind Speed {m/s}
  220,                                    ! Wind Direction {deg}
  0,                                      ! Sky Clearness
  0,                                      ! Rain Indicator
  0,                                      ! Snow Indicator
  21,                                     ! Day of Month
  7,                                      ! Month
  SummerDesignDay,                        ! Day Type
  0,                                      ! Daylight Saving Time Indicator
  Wetbulb,                                ! Humidity Indicating Type
  ,                                       ! Humidity Indicating Day Schedule Name
  DefaultMultipliers,                     ! Dry-Bulb Temperature Range Modifier Type
  ,                                       ! Dry-Bulb Temperature Range Modifier Schedule Name
  ASHRAETau,                              ! Solar Model Indicator
  ,                                       ! Beam Solar Day Schedule Name
  ,                                       ! Diffuse Solar Day Schedule Name
  0.448,                                  ! ASHRAE Taub {dimensionless}
  2.098;                                  ! ASHRAE Taud {dimensionless}

OS:ComponentData,
  {ec87b497-b606-4cb3-8515-a9f17463ab34}, ! Handle
  Component Data 1,                       ! Name
  {8e3e8d66-cb3b-49e6-95df-516eb063ad70}, ! UUID
  {cac9dc4b-c1e7-4894-801b-4cb0f9031fc1}, ! Version UUID
  1366308481,                             ! Creation Timestamp
  1366308481,                             ! Version Timestamp
  {2c43b739-753a-4248-848b-5db99b38d39d}; ! Name of Object 1

