
OS:Version,
  {1ec9a6da-d175-42a3-8409-373751649579}, ! Handle
  0.9.3;                                  ! Version Identifier

OS:SizingPeriod:DesignDay,
  {5068e617-81eb-4275-af3b-e7c34031572b}, ! Handle
  Adak NAS Ann Clg .4% Condns DB=>MWB,    ! Name
  15.4,                                   ! Maximum Dry-Bulb Temperature {C}
  4.9,                                    ! Daily Dry-Bulb Temperature Range {deltaC}
  12.8,                                   ! Humidity Indicating Conditions at Maximum Dry-Bulb {BasedOnField A3}
  101265,                                 ! Barometric Pressure {Pa}
  4.9,                                    ! Wind Speed {m/s}
  180,                                    ! Wind Direction {deg}
  0,                                      ! Sky Clearness
  0,                                      ! Rain Indicator
  0,                                      ! Snow Indicator
  21,                                     ! Day of Month
  8,                                      ! Month
  SummerDesignDay,                        ! Day Type
  0,                                      ! Daylight Saving Time Indicator
  Wetbulb,                                ! Humidity Indicating Type
  ,                                       ! Humidity Indicating Day Schedule Name
  DefaultMultipliers,                     ! Dry-Bulb Temperature Range Modifier Type
  ,                                       ! Dry-Bulb Temperature Range Modifier Schedule Name
  ASHRAETau,                              ! Solar Model Indicator
  ,                                       ! Beam Solar Day Schedule Name
  ,                                       ! Diffuse Solar Day Schedule Name
  0.394,                                  ! ASHRAE Taub {dimensionless}
  2.21;                                   ! ASHRAE Taud {dimensionless}

OS:ComponentData,
  {4ebc201c-cad2-4be3-8675-a1aa67e9e6c5}, ! Handle
  Component Data 1,                       ! Name
  {d7029c01-623b-4aba-97ef-a73b4b08a3aa}, ! UUID
  {d194d66a-4669-4ae0-b1c6-5f5c5634c7b6}, ! Version UUID
  1364004393,                             ! Creation Timestamp
  1364004393,                             ! Version Timestamp
  {5068e617-81eb-4275-af3b-e7c34031572b}; ! Name of Object 1

