
OS:Version,
  {a30ccd38-4556-4970-b36c-23b5d99b025d}, ! Handle
  0.9.3;                                  ! Version Identifier

OS:SizingPeriod:DesignDay,
  {01f9f874-866c-4611-89f8-c8356464ebdf}, ! Handle
  Fresno Yosemite Intl Ap Ann Clg 2% Condns DP=>MDB, ! Name
  28,                                     ! Maximum Dry-Bulb Temperature {C}
  16.4,                                   ! Daily Dry-Bulb Temperature Range {deltaC}
  16.5,                                   ! Humidity Indicating Conditions at Maximum Dry-Bulb {BasedOnField A3}
  100106,                                 ! Barometric Pressure {Pa}
  3.7,                                    ! Wind Speed {m/s}
  300,                                    ! Wind Direction {deg}
  0,                                      ! Sky Clearness
  0,                                      ! Rain Indicator
  0,                                      ! Snow Indicator
  21,                                     ! Day of Month
  7,                                      ! Month
  SummerDesignDay,                        ! Day Type
  0,                                      ! Daylight Saving Time Indicator
  Dewpoint,                               ! Humidity Indicating Type
  ,                                       ! Humidity Indicating Day Schedule Name
  DefaultMultipliers,                     ! Dry-Bulb Temperature Range Modifier Type
  ,                                       ! Dry-Bulb Temperature Range Modifier Schedule Name
  ASHRAETau,                              ! Solar Model Indicator
  ,                                       ! Beam Solar Day Schedule Name
  ,                                       ! Diffuse Solar Day Schedule Name
  0.428,                                  ! ASHRAE Taub {dimensionless}
  2.152;                                  ! ASHRAE Taud {dimensionless}

OS:ComponentData,
  {3492c133-3bf1-432a-ba41-e21f7ec35f59}, ! Handle
  Component Data 1,                       ! Name
  {61e12c9b-c340-4ab0-93a3-ffdc9eb57812}, ! UUID
  {1ffca413-9515-4ed0-bdaa-225edcf5c37d}, ! Version UUID
  1366306440,                             ! Creation Timestamp
  1366306440,                             ! Version Timestamp
  {01f9f874-866c-4611-89f8-c8356464ebdf}; ! Name of Object 1

