
OS:Version,
  {cd9a61f7-779d-427f-98ba-41b24afd08bc}, ! Handle
  0.9.3;                                  ! Version Identifier

OS:SizingPeriod:DesignDay,
  {cab1254b-cdf5-40de-b388-bfc4edd29e5f}, ! Handle
  LAS_VEGAS Ann Clg 2% Condns WB=>MDB,    ! Name
  34.4,                                   ! Maximum Dry-Bulb Temperature {C}
  13,                                     ! Daily Dry-Bulb Temperature Range {deltaC}
  21.1,                                   ! Humidity Indicating Conditions at Maximum Dry-Bulb {BasedOnField A3}
  93598,                                  ! Barometric Pressure {Pa}
  4.9,                                    ! Wind Speed {m/s}
  230,                                    ! Wind Direction {deg}
  0,                                      ! Sky Clearness
  0,                                      ! Rain Indicator
  0,                                      ! Snow Indicator
  21,                                     ! Day of Month
  7,                                      ! Month
  SummerDesignDay,                        ! Day Type
  0,                                      ! Daylight Saving Time Indicator
  Wetbulb,                                ! Humidity Indicating Type
  ,                                       ! Humidity Indicating Day Schedule Name
  DefaultMultipliers,                     ! Dry-Bulb Temperature Range Modifier Type
  ,                                       ! Dry-Bulb Temperature Range Modifier Schedule Name
  ASHRAETau,                              ! Solar Model Indicator
  ,                                       ! Beam Solar Day Schedule Name
  ,                                       ! Diffuse Solar Day Schedule Name
  0.55,                                   ! ASHRAE Taub {dimensionless}
  1.674;                                  ! ASHRAE Taud {dimensionless}

OS:ComponentData,
  {bf2143cd-89f2-4e22-9e7b-2e79cedb8abf}, ! Handle
  Component Data 1,                       ! Name
  {a9b7e2b3-6a26-4a2d-b747-e981437cc218}, ! UUID
  {7627eeca-3f3f-4eda-bbf1-9b6d2b09cd61}, ! Version UUID
  1366309507,                             ! Creation Timestamp
  1366309507,                             ! Version Timestamp
  {cab1254b-cdf5-40de-b388-bfc4edd29e5f}; ! Name of Object 1

