
OS:Version,
  {d696f1b5-d8f4-456b-a055-29633264efb4}, ! Handle
  0.9.3;                                  ! Version Identifier

OS:SizingPeriod:DesignDay,
  {8a23df0b-ba74-453f-8c78-7351e416115c}, ! Handle
  Daggett Barstow Daggett Ap Ann Clg .4% Condns WB=>MDB, ! Name
  37.6,                                   ! Maximum Dry-Bulb Temperature {C}
  16.6,                                   ! Daily Dry-Bulb Temperature Range {deltaC}
  22.8,                                   ! Humidity Indicating Conditions at Maximum Dry-Bulb {BasedOnField A3}
  94480,                                  ! Barometric Pressure {Pa}
  4.8,                                    ! Wind Speed {m/s}
  290,                                    ! Wind Direction {deg}
  0,                                      ! Sky Clearness
  0,                                      ! Rain Indicator
  0,                                      ! Snow Indicator
  21,                                     ! Day of Month
  7,                                      ! Month
  SummerDesignDay,                        ! Day Type
  0,                                      ! Daylight Saving Time Indicator
  Wetbulb,                                ! Humidity Indicating Type
  ,                                       ! Humidity Indicating Day Schedule Name
  DefaultMultipliers,                     ! Dry-Bulb Temperature Range Modifier Type
  ,                                       ! Dry-Bulb Temperature Range Modifier Schedule Name
  ASHRAETau,                              ! Solar Model Indicator
  ,                                       ! Beam Solar Day Schedule Name
  ,                                       ! Diffuse Solar Day Schedule Name
  0.497,                                  ! ASHRAE Taub {dimensionless}
  1.821;                                  ! ASHRAE Taud {dimensionless}

OS:ComponentData,
  {1f5f8784-3cd4-4278-ba11-f8b68fc075fd}, ! Handle
  Component Data 1,                       ! Name
  {0e200b32-0aab-44d6-81a2-93fc8bc575f9}, ! UUID
  {c93a55e8-58c1-4d2c-ba9a-7b99ee281fc6}, ! Version UUID
  1366306376,                             ! Creation Timestamp
  1366306376,                             ! Version Timestamp
  {8a23df0b-ba74-453f-8c78-7351e416115c}; ! Name of Object 1

