
OS:Version,
  {0b63fc38-b7ed-48f6-bf3a-955676ddfdd3}, ! Handle
  0.9.3;                                  ! Version Identifier

OS:SizingPeriod:DesignDay,
  {5c77e988-d899-4e6e-a0a8-72e1a3594135}, ! Handle
  LAS_VEGAS Ann Hum_n 99.6% Condns DP=>MCDB, ! Name
  6.8,                                    ! Maximum Dry-Bulb Temperature {C}
  0,                                      ! Daily Dry-Bulb Temperature Range {deltaC}
  -17.5,                                  ! Humidity Indicating Conditions at Maximum Dry-Bulb {BasedOnField A3}
  93598,                                  ! Barometric Pressure {Pa}
  3,                                      ! Wind Speed {m/s}
  240,                                    ! Wind Direction {deg}
  0,                                      ! Sky Clearness
  0,                                      ! Rain Indicator
  0,                                      ! Snow Indicator
  21,                                     ! Day of Month
  12,                                     ! Month
  WinterDesignDay,                        ! Day Type
  0,                                      ! Daylight Saving Time Indicator
  Dewpoint,                               ! Humidity Indicating Type
  ,                                       ! Humidity Indicating Day Schedule Name
  DefaultMultipliers,                     ! Dry-Bulb Temperature Range Modifier Type
  ,                                       ! Dry-Bulb Temperature Range Modifier Schedule Name
  ASHRAEClearSky;                         ! Solar Model Indicator

OS:ComponentData,
  {748f4034-4f91-46ca-94bc-01566f4a9cd4}, ! Handle
  Component Data 1,                       ! Name
  {12f7e234-7566-4f5c-801d-63a805c7bdd5}, ! UUID
  {52aaf497-aa80-4602-9d01-046f60592720}, ! Version UUID
  1366309505,                             ! Creation Timestamp
  1366309505,                             ! Version Timestamp
  {5c77e988-d899-4e6e-a0a8-72e1a3594135}; ! Name of Object 1

