
OS:Version,
  {3c4e2c91-fa88-404e-aa28-439d220707ab}, ! Handle
  0.9.3;                                  ! Version Identifier

OS:SizingPeriod:DesignDay,
  {8771b3df-1c18-4986-b777-4eef91553d94}, ! Handle
  International Falls Intl Ap Ann Htg 99.6% Condns DB, ! Name
  -32.7,                                  ! Maximum Dry-Bulb Temperature {C}
  0,                                      ! Daily Dry-Bulb Temperature Range {deltaC}
  -32.7,                                  ! Humidity Indicating Conditions at Maximum Dry-Bulb {BasedOnField A3}
  97086,                                  ! Barometric Pressure {Pa}
  2.4,                                    ! Wind Speed {m/s}
  210,                                    ! Wind Direction {deg}
  0,                                      ! Sky Clearness
  0,                                      ! Rain Indicator
  0,                                      ! Snow Indicator
  21,                                     ! Day of Month
  1,                                      ! Month
  WinterDesignDay,                        ! Day Type
  0,                                      ! Daylight Saving Time Indicator
  Wetbulb,                                ! Humidity Indicating Type
  ,                                       ! Humidity Indicating Day Schedule Name
  DefaultMultipliers,                     ! Dry-Bulb Temperature Range Modifier Type
  ,                                       ! Dry-Bulb Temperature Range Modifier Schedule Name
  ASHRAEClearSky;                         ! Solar Model Indicator

OS:ComponentData,
  {621755c2-9bea-4027-b136-ce33735444fc}, ! Handle
  Component Data 1,                       ! Name
  {f90298c4-2a73-4f54-a308-0861021e7489}, ! UUID
  {ab119d88-7243-46d7-9287-1d68a935e38f}, ! Version UUID
  1366308276,                             ! Creation Timestamp
  1366308276,                             ! Version Timestamp
  {8771b3df-1c18-4986-b777-4eef91553d94}; ! Name of Object 1

