
OS:Version,
  {89941374-abfe-4e84-9199-7916ae8b2976}, ! Handle
  0.9.3;                                  ! Version Identifier

OS:SizingPeriod:DesignDay,
  {cc38146a-5e7f-491f-92a8-1a4a89e6687f}, ! Handle
  BETTLES Ann Htg Wind 99% Condns WS=>MCDB, ! Name
  -12.8,                                  ! Maximum Dry-Bulb Temperature {C}
  0,                                      ! Daily Dry-Bulb Temperature Range {deltaC}
  -12.8,                                  ! Humidity Indicating Conditions at Maximum Dry-Bulb {BasedOnField A3}
  98886,                                  ! Barometric Pressure {Pa}
  8.2,                                    ! Wind Speed {m/s}
  340,                                    ! Wind Direction {deg}
  0,                                      ! Sky Clearness
  0,                                      ! Rain Indicator
  0,                                      ! Snow Indicator
  21,                                     ! Day of Month
  1,                                      ! Month
  WinterDesignDay,                        ! Day Type
  0,                                      ! Daylight Saving Time Indicator
  Wetbulb,                                ! Humidity Indicating Type
  ,                                       ! Humidity Indicating Day Schedule Name
  DefaultMultipliers,                     ! Dry-Bulb Temperature Range Modifier Type
  ,                                       ! Dry-Bulb Temperature Range Modifier Schedule Name
  ASHRAEClearSky;                         ! Solar Model Indicator

OS:ComponentData,
  {7fab309d-bf49-4245-ae03-bb12765c349a}, ! Handle
  Component Data 1,                       ! Name
  {4027e53f-849d-4184-a0e8-7231d134c508}, ! UUID
  {f8d9a3bb-f4d2-41c6-a094-35631e8f5c2c}, ! Version UUID
  1366304761,                             ! Creation Timestamp
  1366304761,                             ! Version Timestamp
  {cc38146a-5e7f-491f-92a8-1a4a89e6687f}; ! Name of Object 1

