
OS:Version,
  {acf666f9-73ac-4206-84c2-97f9df9bce96}, ! Handle
  0.9.3;                                  ! Version Identifier

OS:SizingPeriod:DesignDay,
  {36ae953f-d022-4db4-ac3a-d1107ddcad64}, ! Handle
  Elko Ann Htg Wind 99% Condns WS=>MCDB,  ! Name
  3.3,                                    ! Maximum Dry-Bulb Temperature {C}
  0,                                      ! Daily Dry-Bulb Temperature Range {deltaC}
  3.3,                                    ! Humidity Indicating Conditions at Maximum Dry-Bulb {BasedOnField A3}
  83884,                                  ! Barometric Pressure {Pa}
  8.4,                                    ! Wind Speed {m/s}
  90,                                     ! Wind Direction {deg}
  0,                                      ! Sky Clearness
  0,                                      ! Rain Indicator
  0,                                      ! Snow Indicator
  21,                                     ! Day of Month
  1,                                      ! Month
  WinterDesignDay,                        ! Day Type
  0,                                      ! Daylight Saving Time Indicator
  Wetbulb,                                ! Humidity Indicating Type
  ,                                       ! Humidity Indicating Day Schedule Name
  DefaultMultipliers,                     ! Dry-Bulb Temperature Range Modifier Type
  ,                                       ! Dry-Bulb Temperature Range Modifier Schedule Name
  ASHRAEClearSky;                         ! Solar Model Indicator

OS:ComponentData,
  {48fd023a-63d4-4460-b107-1ef322f00a27}, ! Handle
  Component Data 1,                       ! Name
  {9294960f-6135-45db-b8d8-34b478114542}, ! UUID
  {e964a46f-dab6-4236-8e51-fb88cf055def}, ! Version UUID
  1366309461,                             ! Creation Timestamp
  1366309461,                             ! Version Timestamp
  {36ae953f-d022-4db4-ac3a-d1107ddcad64}; ! Name of Object 1

