
OS:Version,
  {e91a9931-cd66-442a-bc23-cdb980b2610b}, ! Handle
  0.9.3;                                  ! Version Identifier

OS:SizingPeriod:DesignDay,
  {2c421482-3543-407f-9c8c-345299fa067e}, ! Handle
  Daggett Barstow Daggett Ap Ann Clg 1% Condns Enth=>MDB, ! Name
  37,                                     ! Maximum Dry-Bulb Temperature {C}
  16.6,                                   ! Daily Dry-Bulb Temperature Range {deltaC}
  66800,                                  ! Humidity Indicating Conditions at Maximum Dry-Bulb {BasedOnField A3}
  94480,                                  ! Barometric Pressure {Pa}
  4.8,                                    ! Wind Speed {m/s}
  290,                                    ! Wind Direction {deg}
  0,                                      ! Sky Clearness
  0,                                      ! Rain Indicator
  0,                                      ! Snow Indicator
  21,                                     ! Day of Month
  7,                                      ! Month
  SummerDesignDay,                        ! Day Type
  0,                                      ! Daylight Saving Time Indicator
  Enthalpy,                               ! Humidity Indicating Type
  ,                                       ! Humidity Indicating Day Schedule Name
  DefaultMultipliers,                     ! Dry-Bulb Temperature Range Modifier Type
  ,                                       ! Dry-Bulb Temperature Range Modifier Schedule Name
  ASHRAETau,                              ! Solar Model Indicator
  ,                                       ! Beam Solar Day Schedule Name
  ,                                       ! Diffuse Solar Day Schedule Name
  0.497,                                  ! ASHRAE Taub {dimensionless}
  1.821;                                  ! ASHRAE Taud {dimensionless}

OS:ComponentData,
  {849fba99-d9b6-439e-ae78-bcd28fb36b02}, ! Handle
  Component Data 1,                       ! Name
  {fa0247ce-93cd-4e4e-a8f2-710572b88adf}, ! UUID
  {5fcee43b-fd25-4bd8-b1d0-bc4f8db8998e}, ! Version UUID
  1366306377,                             ! Creation Timestamp
  1366306377,                             ! Version Timestamp
  {2c421482-3543-407f-9c8c-345299fa067e}; ! Name of Object 1

