
OS:Version,
  {405121c1-04b4-4305-946e-c34670fa464a}, ! Handle
  0.9.3;                                  ! Version Identifier

OS:SizingPeriod:DesignDay,
  {4c4a3cb1-3227-492a-a728-521acf3b6be4}, ! Handle
  Lancaster Gen Wm Fox Field Ann Hum_n 99.6% Condns DP=>MCDB, ! Name
  2.4,                                    ! Maximum Dry-Bulb Temperature {C}
  0,                                      ! Daily Dry-Bulb Temperature Range {deltaC}
  -17.3,                                  ! Humidity Indicating Conditions at Maximum Dry-Bulb {BasedOnField A3}
  93048,                                  ! Barometric Pressure {Pa}
  1.2,                                    ! Wind Speed {m/s}
  270,                                    ! Wind Direction {deg}
  0,                                      ! Sky Clearness
  0,                                      ! Rain Indicator
  0,                                      ! Snow Indicator
  21,                                     ! Day of Month
  12,                                     ! Month
  WinterDesignDay,                        ! Day Type
  0,                                      ! Daylight Saving Time Indicator
  Dewpoint,                               ! Humidity Indicating Type
  ,                                       ! Humidity Indicating Day Schedule Name
  DefaultMultipliers,                     ! Dry-Bulb Temperature Range Modifier Type
  ,                                       ! Dry-Bulb Temperature Range Modifier Schedule Name
  ASHRAEClearSky;                         ! Solar Model Indicator

OS:ComponentData,
  {d5cbb373-5a23-42e5-80dd-5e76cf8d1b5c}, ! Handle
  Component Data 1,                       ! Name
  {b5bf0d73-362f-4920-af14-6d4f4d53e7b1}, ! UUID
  {3fb031f6-5dff-4e4b-b4ef-11e106469f61}, ! Version UUID
  1366306457,                             ! Creation Timestamp
  1366306457,                             ! Version Timestamp
  {4c4a3cb1-3227-492a-a728-521acf3b6be4}; ! Name of Object 1

