
OS:Version,
  {27d6ef8a-01fc-4aa4-9d8b-aa478530460e}, ! Handle
  0.9.3;                                  ! Version Identifier

OS:SizingPeriod:DesignDay,
  {2b5aa89f-c900-41fa-b947-5da7d81a68a4}, ! Handle
  Greenwood Leflore Arpt Ann Htg Wind 99.6% Condns WS=>MCDB, ! Name
  11.3,                                   ! Maximum Dry-Bulb Temperature {C}
  0,                                      ! Daily Dry-Bulb Temperature Range {deltaC}
  11.3,                                   ! Humidity Indicating Conditions at Maximum Dry-Bulb {BasedOnField A3}
  100762,                                 ! Barometric Pressure {Pa}
  10.1,                                   ! Wind Speed {m/s}
  0,                                      ! Wind Direction {deg}
  0,                                      ! Sky Clearness
  0,                                      ! Rain Indicator
  0,                                      ! Snow Indicator
  21,                                     ! Day of Month
  1,                                      ! Month
  WinterDesignDay,                        ! Day Type
  0,                                      ! Daylight Saving Time Indicator
  Wetbulb,                                ! Humidity Indicating Type
  ,                                       ! Humidity Indicating Day Schedule Name
  DefaultMultipliers,                     ! Dry-Bulb Temperature Range Modifier Type
  ,                                       ! Dry-Bulb Temperature Range Modifier Schedule Name
  ASHRAEClearSky;                         ! Solar Model Indicator

OS:ComponentData,
  {78c57127-b05c-4802-8a40-07e55e070ca1}, ! Handle
  Component Data 1,                       ! Name
  {894ec5b0-bc56-47e1-8ad0-d0b4ce5d73ca}, ! UUID
  {f04a052c-ccfe-4366-92a5-fc89d6e66894}, ! Version UUID
  1366308625,                             ! Creation Timestamp
  1366308625,                             ! Version Timestamp
  {2b5aa89f-c900-41fa-b947-5da7d81a68a4}; ! Name of Object 1

