
OS:Version,
  {88bfa129-bede-46d8-abf2-fb650ef24eb5}, ! Handle
  0.9.3;                                  ! Version Identifier

OS:SizingPeriod:DesignDay,
  {b06c329c-afd9-4a34-8ad4-98e1a5c5fa49}, ! Handle
  Jackson Hole Ann Hum_n 99% Condns DP=>MCDB, ! Name
  -22.1,                                  ! Maximum Dry-Bulb Temperature {C}
  0,                                      ! Daily Dry-Bulb Temperature Range {deltaC}
  -26.6,                                  ! Humidity Indicating Conditions at Maximum Dry-Bulb {BasedOnField A3}
  79337,                                  ! Barometric Pressure {Pa}
  2.7,                                    ! Wind Speed {m/s}
  20,                                     ! Wind Direction {deg}
  0,                                      ! Sky Clearness
  0,                                      ! Rain Indicator
  0,                                      ! Snow Indicator
  21,                                     ! Day of Month
  12,                                     ! Month
  WinterDesignDay,                        ! Day Type
  0,                                      ! Daylight Saving Time Indicator
  Dewpoint,                               ! Humidity Indicating Type
  ,                                       ! Humidity Indicating Day Schedule Name
  DefaultMultipliers,                     ! Dry-Bulb Temperature Range Modifier Type
  ,                                       ! Dry-Bulb Temperature Range Modifier Schedule Name
  ASHRAEClearSky;                         ! Solar Model Indicator

OS:ComponentData,
  {e7c79874-9dba-4675-9fe0-ff8cd31e0d82}, ! Handle
  Component Data 1,                       ! Name
  {98468adc-af0d-4fba-b46c-e2b28589df87}, ! UUID
  {0d883eb0-b494-421e-a818-3a06f60d16e8}, ! Version UUID
  1366311743,                             ! Creation Timestamp
  1366311743,                             ! Version Timestamp
  {b06c329c-afd9-4a34-8ad4-98e1a5c5fa49}; ! Name of Object 1

