
OS:Version,
  {132dffb5-9cf0-4c2e-b9d7-dd7452ffc0fb}, ! Handle
  0.9.3;                                  ! Version Identifier

OS:SizingPeriod:DesignDay,
  {1addf1bf-ef4e-494c-a872-2e20625361aa}, ! Handle
  Fulton Co Arpt Brow Ann Clg .4% Condns Enth=>MDB, ! Name
  31.9,                                   ! Maximum Dry-Bulb Temperature {C}
  10.3,                                   ! Daily Dry-Bulb Temperature Range {deltaC}
  78700,                                  ! Humidity Indicating Conditions at Maximum Dry-Bulb {BasedOnField A3}
  98205,                                  ! Barometric Pressure {Pa}
  3.3,                                    ! Wind Speed {m/s}
  310,                                    ! Wind Direction {deg}
  0,                                      ! Sky Clearness
  0,                                      ! Rain Indicator
  0,                                      ! Snow Indicator
  21,                                     ! Day of Month
  7,                                      ! Month
  SummerDesignDay,                        ! Day Type
  0,                                      ! Daylight Saving Time Indicator
  Enthalpy,                               ! Humidity Indicating Type
  ,                                       ! Humidity Indicating Day Schedule Name
  DefaultMultipliers,                     ! Dry-Bulb Temperature Range Modifier Type
  ,                                       ! Dry-Bulb Temperature Range Modifier Schedule Name
  ASHRAETau,                              ! Solar Model Indicator
  ,                                       ! Beam Solar Day Schedule Name
  ,                                       ! Diffuse Solar Day Schedule Name
  0.565,                                  ! ASHRAE Taub {dimensionless}
  1.76;                                   ! ASHRAE Taud {dimensionless}

OS:ComponentData,
  {c3a4a195-b8b1-4569-ab38-73efa011a8ca}, ! Handle
  Component Data 1,                       ! Name
  {db3a90a1-c936-447e-a389-460b0b537a48}, ! UUID
  {143a9a20-1df8-47e6-a952-dc7095c1621b}, ! Version UUID
  1366307014,                             ! Creation Timestamp
  1366307014,                             ! Version Timestamp
  {1addf1bf-ef4e-494c-a872-2e20625361aa}; ! Name of Object 1

