
OS:Version,
  {4a5da51f-4ac5-4a71-bd90-d0f4b9ac069c}, ! Handle
  0.9.3;                                  ! Version Identifier

OS:SizingPeriod:DesignDay,
  {095858d0-6cbc-4169-97e4-36328bac4341}, ! Handle
  JACKSON Ann Clg 1% Condns DP=>MDB,      ! Name
  28.2,                                   ! Maximum Dry-Bulb Temperature {C}
  10.7,                                   ! Daily Dry-Bulb Temperature Range {deltaC}
  24.6,                                   ! Humidity Indicating Conditions at Maximum Dry-Bulb {BasedOnField A3}
  100118,                                 ! Barometric Pressure {Pa}
  3.2,                                    ! Wind Speed {m/s}
  350,                                    ! Wind Direction {deg}
  0,                                      ! Sky Clearness
  0,                                      ! Rain Indicator
  0,                                      ! Snow Indicator
  21,                                     ! Day of Month
  7,                                      ! Month
  SummerDesignDay,                        ! Day Type
  0,                                      ! Daylight Saving Time Indicator
  Dewpoint,                               ! Humidity Indicating Type
  ,                                       ! Humidity Indicating Day Schedule Name
  DefaultMultipliers,                     ! Dry-Bulb Temperature Range Modifier Type
  ,                                       ! Dry-Bulb Temperature Range Modifier Schedule Name
  ASHRAETau,                              ! Solar Model Indicator
  ,                                       ! Beam Solar Day Schedule Name
  ,                                       ! Diffuse Solar Day Schedule Name
  0.534,                                  ! ASHRAE Taub {dimensionless}
  1.869;                                  ! ASHRAE Taud {dimensionless}

OS:ComponentData,
  {0adf35f4-96b3-4b2b-b66c-2b596ed4dcb5}, ! Handle
  Component Data 1,                       ! Name
  {4d62a2c1-9464-4dd0-9c42-da484a93fcfb}, ! UUID
  {a668cbe1-69dc-474e-a23f-96da60a6985b}, ! Version UUID
  1366308640,                             ! Creation Timestamp
  1366308640,                             ! Version Timestamp
  {095858d0-6cbc-4169-97e4-36328bac4341}; ! Name of Object 1

