
OS:Version,
  {bd61b975-3623-4b65-b3a9-24350f9de2b0}, ! Handle
  0.9.3;                                  ! Version Identifier

OS:SizingPeriod:DesignDay,
  {c2103177-e692-48ad-901e-e4f355a2a451}, ! Handle
  Fort Worth Alliance Ann Htg 99% Condns DB, ! Name
  -3,                                     ! Maximum Dry-Bulb Temperature {C}
  0,                                      ! Daily Dry-Bulb Temperature Range {deltaC}
  -3,                                     ! Humidity Indicating Conditions at Maximum Dry-Bulb {BasedOnField A3}
  98639,                                  ! Barometric Pressure {Pa}
  3.6,                                    ! Wind Speed {m/s}
  0,                                      ! Wind Direction {deg}
  0,                                      ! Sky Clearness
  0,                                      ! Rain Indicator
  0,                                      ! Snow Indicator
  21,                                     ! Day of Month
  1,                                      ! Month
  WinterDesignDay,                        ! Day Type
  0,                                      ! Daylight Saving Time Indicator
  Wetbulb,                                ! Humidity Indicating Type
  ,                                       ! Humidity Indicating Day Schedule Name
  DefaultMultipliers,                     ! Dry-Bulb Temperature Range Modifier Type
  ,                                       ! Dry-Bulb Temperature Range Modifier Schedule Name
  ASHRAEClearSky;                         ! Solar Model Indicator

OS:ComponentData,
  {0abab0fe-c32a-4455-ae80-797fdf82ebf5}, ! Handle
  Component Data 1,                       ! Name
  {f47d37cc-ea2d-424f-89b2-ea7146043aee}, ! UUID
  {46f9568b-6a18-4455-9545-8672eda03c70}, ! Version UUID
  1366310697,                             ! Creation Timestamp
  1366310697,                             ! Version Timestamp
  {c2103177-e692-48ad-901e-e4f355a2a451}; ! Name of Object 1

