
OS:Version,
  {fefaf125-7b55-4fbb-b8ad-3e5c5e2222eb}, ! Handle
  0.9.3;                                  ! Version Identifier

OS:SizingPeriod:DesignDay,
  {b7bf2ef3-0a8c-4914-8e63-8dcd3d4bc492}, ! Handle
  Daggett Barstow Daggett Ap Ann Clg 2% Condns WB=>MDB, ! Name
  36.2,                                   ! Maximum Dry-Bulb Temperature {C}
  16.6,                                   ! Daily Dry-Bulb Temperature Range {deltaC}
  21.2,                                   ! Humidity Indicating Conditions at Maximum Dry-Bulb {BasedOnField A3}
  94480,                                  ! Barometric Pressure {Pa}
  4.8,                                    ! Wind Speed {m/s}
  290,                                    ! Wind Direction {deg}
  0,                                      ! Sky Clearness
  0,                                      ! Rain Indicator
  0,                                      ! Snow Indicator
  21,                                     ! Day of Month
  7,                                      ! Month
  SummerDesignDay,                        ! Day Type
  0,                                      ! Daylight Saving Time Indicator
  Wetbulb,                                ! Humidity Indicating Type
  ,                                       ! Humidity Indicating Day Schedule Name
  DefaultMultipliers,                     ! Dry-Bulb Temperature Range Modifier Type
  ,                                       ! Dry-Bulb Temperature Range Modifier Schedule Name
  ASHRAETau,                              ! Solar Model Indicator
  ,                                       ! Beam Solar Day Schedule Name
  ,                                       ! Diffuse Solar Day Schedule Name
  0.497,                                  ! ASHRAE Taub {dimensionless}
  1.821;                                  ! ASHRAE Taud {dimensionless}

OS:ComponentData,
  {207e18a1-8f65-47b2-a12c-5013ca3c6fdc}, ! Handle
  Component Data 1,                       ! Name
  {9b51777b-a322-480e-86f4-6a514bd00850}, ! UUID
  {dc6f1834-c859-463e-984d-4631db9a6dc2}, ! Version UUID
  1366306377,                             ! Creation Timestamp
  1366306377,                             ! Version Timestamp
  {b7bf2ef3-0a8c-4914-8e63-8dcd3d4bc492}; ! Name of Object 1

