
OS:Version,
  {36fd2e29-c071-4d07-b228-69d0273080fd}, ! Handle
  0.9.3;                                  ! Version Identifier

OS:SizingPeriod:DesignDay,
  {9fa218f6-577d-4917-a412-1c31ffb215ac}, ! Handle
  Cotulla Faa Ap Ann Clg 2% Condns DP=>MDB, ! Name
  27.2,                                   ! Maximum Dry-Bulb Temperature {C}
  13.1,                                   ! Daily Dry-Bulb Temperature Range {deltaC}
  23.5,                                   ! Humidity Indicating Conditions at Maximum Dry-Bulb {BasedOnField A3}
  99643,                                  ! Barometric Pressure {Pa}
  3.6,                                    ! Wind Speed {m/s}
  150,                                    ! Wind Direction {deg}
  0,                                      ! Sky Clearness
  0,                                      ! Rain Indicator
  0,                                      ! Snow Indicator
  21,                                     ! Day of Month
  8,                                      ! Month
  SummerDesignDay,                        ! Day Type
  0,                                      ! Daylight Saving Time Indicator
  Dewpoint,                               ! Humidity Indicating Type
  ,                                       ! Humidity Indicating Day Schedule Name
  DefaultMultipliers,                     ! Dry-Bulb Temperature Range Modifier Type
  ,                                       ! Dry-Bulb Temperature Range Modifier Schedule Name
  ASHRAETau,                              ! Solar Model Indicator
  ,                                       ! Beam Solar Day Schedule Name
  ,                                       ! Diffuse Solar Day Schedule Name
  0.448,                                  ! ASHRAE Taub {dimensionless}
  2.156;                                  ! ASHRAE Taud {dimensionless}

OS:ComponentData,
  {2720472f-8f17-493a-a519-2854c6b6dd85}, ! Handle
  Component Data 1,                       ! Name
  {37e35b00-3102-4697-91ca-b71f16f78bde}, ! UUID
  {c1432e0b-e408-4685-8fbe-8d2fbc4a6756}, ! Version UUID
  1366310640,                             ! Creation Timestamp
  1366310640,                             ! Version Timestamp
  {9fa218f6-577d-4917-a412-1c31ffb215ac}; ! Name of Object 1

