
OS:Version,
  {89291bb4-fc88-4280-9159-84f35549d441}, ! Handle
  0.9.3;                                  ! Version Identifier

OS:SizingPeriod:DesignDay,
  {211b031d-9ee9-400a-a0a4-613b1850586e}, ! Handle
  Franklin Ann Htg Wind 99% Condns WS=>MCDB, ! Name
  0.8,                                    ! Maximum Dry-Bulb Temperature {C}
  0,                                      ! Daily Dry-Bulb Temperature Range {deltaC}
  0.8,                                    ! Humidity Indicating Conditions at Maximum Dry-Bulb {BasedOnField A3}
  95805,                                  ! Barometric Pressure {Pa}
  9.3,                                    ! Wind Speed {m/s}
  220,                                    ! Wind Direction {deg}
  0,                                      ! Sky Clearness
  0,                                      ! Rain Indicator
  0,                                      ! Snow Indicator
  21,                                     ! Day of Month
  1,                                      ! Month
  WinterDesignDay,                        ! Day Type
  0,                                      ! Daylight Saving Time Indicator
  Wetbulb,                                ! Humidity Indicating Type
  ,                                       ! Humidity Indicating Day Schedule Name
  DefaultMultipliers,                     ! Dry-Bulb Temperature Range Modifier Type
  ,                                       ! Dry-Bulb Temperature Range Modifier Schedule Name
  ASHRAEClearSky;                         ! Solar Model Indicator

OS:ComponentData,
  {f002ee45-22c8-437a-bc14-81075f9f6570}, ! Handle
  Component Data 1,                       ! Name
  {03e95977-ca91-4539-8cd1-b1ce717ce5a6}, ! UUID
  {fa775c28-4b28-47c9-ba3e-0e1b7276336e}, ! Version UUID
  1366310178,                             ! Creation Timestamp
  1366310178,                             ! Version Timestamp
  {211b031d-9ee9-400a-a0a4-613b1850586e}; ! Name of Object 1

