
OS:Version,
  {bfe35fe4-0160-424f-b1e3-10ddf5c2f6fe}, ! Handle
  0.9.3;                                  ! Version Identifier

OS:SizingPeriod:DesignDay,
  {463eff85-2583-4f80-a76d-457fb9f424f2}, ! Handle
  Bozeman Gallatin Field Ann Htg 99.6% Condns DB, ! Name
  -27.8,                                  ! Maximum Dry-Bulb Temperature {C}
  0,                                      ! Daily Dry-Bulb Temperature Range {deltaC}
  -27.8,                                  ! Humidity Indicating Conditions at Maximum Dry-Bulb {BasedOnField A3}
  86135,                                  ! Barometric Pressure {Pa}
  1.9,                                    ! Wind Speed {m/s}
  160,                                    ! Wind Direction {deg}
  0,                                      ! Sky Clearness
  0,                                      ! Rain Indicator
  0,                                      ! Snow Indicator
  21,                                     ! Day of Month
  12,                                     ! Month
  WinterDesignDay,                        ! Day Type
  0,                                      ! Daylight Saving Time Indicator
  Wetbulb,                                ! Humidity Indicating Type
  ,                                       ! Humidity Indicating Day Schedule Name
  DefaultMultipliers,                     ! Dry-Bulb Temperature Range Modifier Type
  ,                                       ! Dry-Bulb Temperature Range Modifier Schedule Name
  ASHRAEClearSky;                         ! Solar Model Indicator

OS:ComponentData,
  {307d1b0e-7d3b-4d40-a8e7-9da1b11b59a1}, ! Handle
  Component Data 1,                       ! Name
  {bb4fc0e9-6e0f-471f-93e3-066afca960ed}, ! UUID
  {ecaa4b9e-e459-4616-a16d-f5fbc9fb3d91}, ! Version UUID
  1366308716,                             ! Creation Timestamp
  1366308716,                             ! Version Timestamp
  {463eff85-2583-4f80-a76d-457fb9f424f2}; ! Name of Object 1

