
OS:Version,
  {0f5402e9-24e7-4d98-bd5c-12f0af18f9da}, ! Handle
  0.9.3;                                  ! Version Identifier

OS:SizingPeriod:DesignDay,
  {103a2133-1866-4896-a1d5-794123df9a27}, ! Handle
  Bethel Airport Ann Hum_n 99.6% Condns DP=>MCDB, ! Name
  -30.5,                                  ! Maximum Dry-Bulb Temperature {C}
  0,                                      ! Daily Dry-Bulb Temperature Range {deltaC}
  -36.3,                                  ! Humidity Indicating Conditions at Maximum Dry-Bulb {BasedOnField A3}
  100869,                                 ! Barometric Pressure {Pa}
  4.1,                                    ! Wind Speed {m/s}
  20,                                     ! Wind Direction {deg}
  0,                                      ! Sky Clearness
  0,                                      ! Rain Indicator
  0,                                      ! Snow Indicator
  21,                                     ! Day of Month
  1,                                      ! Month
  WinterDesignDay,                        ! Day Type
  0,                                      ! Daylight Saving Time Indicator
  Dewpoint,                               ! Humidity Indicating Type
  ,                                       ! Humidity Indicating Day Schedule Name
  DefaultMultipliers,                     ! Dry-Bulb Temperature Range Modifier Type
  ,                                       ! Dry-Bulb Temperature Range Modifier Schedule Name
  ASHRAEClearSky;                         ! Solar Model Indicator

OS:ComponentData,
  {fa6afac1-d790-4486-ad6b-08b71836f527}, ! Handle
  Component Data 1,                       ! Name
  {4ae74a80-017f-45ed-984e-08939490d8b2}, ! UUID
  {83fd5da1-012d-42c6-b723-4c7cc5ee5551}, ! Version UUID
  1366304757,                             ! Creation Timestamp
  1366304757,                             ! Version Timestamp
  {103a2133-1866-4896-a1d5-794123df9a27}; ! Name of Object 1

