
OS:Version,
  {8fd85aec-2e0b-484f-a7d7-b06e115fd747}, ! Handle
  0.9.3;                                  ! Version Identifier

OS:SizingPeriod:DesignDay,
  {9fe23ca8-a72e-42c9-a44d-70e24477906e}, ! Handle
  BOSTON Ann Htg Wind 99.6% Condns WS=>MCDB, ! Name
  2.1,                                    ! Maximum Dry-Bulb Temperature {C}
  0,                                      ! Daily Dry-Bulb Temperature Range {deltaC}
  2.1,                                    ! Humidity Indicating Conditions at Maximum Dry-Bulb {BasedOnField A3}
  101265,                                 ! Barometric Pressure {Pa}
  14.1,                                   ! Wind Speed {m/s}
  320,                                    ! Wind Direction {deg}
  0,                                      ! Sky Clearness
  0,                                      ! Rain Indicator
  0,                                      ! Snow Indicator
  21,                                     ! Day of Month
  1,                                      ! Month
  WinterDesignDay,                        ! Day Type
  0,                                      ! Daylight Saving Time Indicator
  Wetbulb,                                ! Humidity Indicating Type
  ,                                       ! Humidity Indicating Day Schedule Name
  DefaultMultipliers,                     ! Dry-Bulb Temperature Range Modifier Type
  ,                                       ! Dry-Bulb Temperature Range Modifier Schedule Name
  ASHRAEClearSky;                         ! Solar Model Indicator

OS:ComponentData,
  {df740540-312a-48fd-bfdc-6b7d3fa2c7a1}, ! Handle
  Component Data 1,                       ! Name
  {fcbcfdf9-f83a-47b9-a488-38af592d2fbc}, ! UUID
  {5db6bd86-5060-4e63-9219-903e80e3eeeb}, ! Version UUID
  1366307781,                             ! Creation Timestamp
  1366307781,                             ! Version Timestamp
  {9fe23ca8-a72e-42c9-a44d-70e24477906e}; ! Name of Object 1

