
OS:Version,
  {d3b56879-9d22-4774-ba63-2824bbfe8d81}, ! Handle
  0.9.3;                                  ! Version Identifier

OS:SizingPeriod:DesignDay,
  {c12241c0-937f-4aa9-b716-01dd1a630216}, ! Handle
  Altus Afb Ann Htg 99% Condns DB,        ! Name
  -6.8,                                   ! Maximum Dry-Bulb Temperature {C}
  0,                                      ! Daily Dry-Bulb Temperature Range {deltaC}
  -6.8,                                   ! Humidity Indicating Conditions at Maximum Dry-Bulb {BasedOnField A3}
  96449,                                  ! Barometric Pressure {Pa}
  4.7,                                    ! Wind Speed {m/s}
  10,                                     ! Wind Direction {deg}
  0,                                      ! Sky Clearness
  0,                                      ! Rain Indicator
  0,                                      ! Snow Indicator
  21,                                     ! Day of Month
  1,                                      ! Month
  WinterDesignDay,                        ! Day Type
  0,                                      ! Daylight Saving Time Indicator
  Wetbulb,                                ! Humidity Indicating Type
  ,                                       ! Humidity Indicating Day Schedule Name
  DefaultMultipliers,                     ! Dry-Bulb Temperature Range Modifier Type
  ,                                       ! Dry-Bulb Temperature Range Modifier Schedule Name
  ASHRAEClearSky;                         ! Solar Model Indicator

OS:ComponentData,
  {82e95203-957e-4212-9add-d93fe23933ce}, ! Handle
  Component Data 1,                       ! Name
  {358d790e-486a-41fd-809b-6b0b127379ec}, ! UUID
  {d3d5e0de-5437-4b63-b83d-d3651fbef119}, ! Version UUID
  1366309877,                             ! Creation Timestamp
  1366309877,                             ! Version Timestamp
  {c12241c0-937f-4aa9-b716-01dd1a630216}; ! Name of Object 1

