
OS:Version,
  {c8dee70c-8f1c-4966-a1cd-c4eac4b1d9b4}, ! Handle
  0.9.3;                                  ! Version Identifier

OS:SizingPeriod:DesignDay,
  {45fee3f4-1961-49b8-8c14-6a1ba7530233}, ! Handle
  KING_SALMON Ann Clg 2% Condns Enth=>MDB, ! Name
  17.3,                                   ! Maximum Dry-Bulb Temperature {C}
  8.6,                                    ! Daily Dry-Bulb Temperature Range {deltaC}
  38700,                                  ! Humidity Indicating Conditions at Maximum Dry-Bulb {BasedOnField A3}
  101145,                                 ! Barometric Pressure {Pa}
  4.8,                                    ! Wind Speed {m/s}
  270,                                    ! Wind Direction {deg}
  0,                                      ! Sky Clearness
  0,                                      ! Rain Indicator
  0,                                      ! Snow Indicator
  21,                                     ! Day of Month
  7,                                      ! Month
  SummerDesignDay,                        ! Day Type
  0,                                      ! Daylight Saving Time Indicator
  Enthalpy,                               ! Humidity Indicating Type
  ,                                       ! Humidity Indicating Day Schedule Name
  DefaultMultipliers,                     ! Dry-Bulb Temperature Range Modifier Type
  ,                                       ! Dry-Bulb Temperature Range Modifier Schedule Name
  ASHRAETau,                              ! Solar Model Indicator
  ,                                       ! Beam Solar Day Schedule Name
  ,                                       ! Diffuse Solar Day Schedule Name
  0.384,                                  ! ASHRAE Taub {dimensionless}
  2.227;                                  ! ASHRAE Taud {dimensionless}

OS:ComponentData,
  {7236890d-099e-4053-b02c-29bd8f4a24ac}, ! Handle
  Component Data 1,                       ! Name
  {022e3702-c2d3-45dc-807c-7cb2a675d7f0}, ! UUID
  {3140db25-6e29-4b72-9d30-50a4e644da7a}, ! Version UUID
  1366305360,                             ! Creation Timestamp
  1366305360,                             ! Version Timestamp
  {45fee3f4-1961-49b8-8c14-6a1ba7530233}; ! Name of Object 1

