
OS:Version,
  {0fe68cdd-e72e-4446-bda9-e8b056a9dbd8}, ! Handle
  0.9.3;                                  ! Version Identifier

OS:SizingPeriod:DesignDay,
  {cca1abd2-56ae-4dc9-982b-ba4288552763}, ! Handle
  Hancock Houghton Co Ap Ann Clg 2% Condns DP=>MDB, ! Name
  22.9,                                   ! Maximum Dry-Bulb Temperature {C}
  10.5,                                   ! Daily Dry-Bulb Temperature Range {deltaC}
  18.6,                                   ! Humidity Indicating Conditions at Maximum Dry-Bulb {BasedOnField A3}
  97458,                                  ! Barometric Pressure {Pa}
  4.7,                                    ! Wind Speed {m/s}
  270,                                    ! Wind Direction {deg}
  0,                                      ! Sky Clearness
  0,                                      ! Rain Indicator
  0,                                      ! Snow Indicator
  21,                                     ! Day of Month
  7,                                      ! Month
  SummerDesignDay,                        ! Day Type
  0,                                      ! Daylight Saving Time Indicator
  Dewpoint,                               ! Humidity Indicating Type
  ,                                       ! Humidity Indicating Day Schedule Name
  DefaultMultipliers,                     ! Dry-Bulb Temperature Range Modifier Type
  ,                                       ! Dry-Bulb Temperature Range Modifier Schedule Name
  ASHRAETau,                              ! Solar Model Indicator
  ,                                       ! Beam Solar Day Schedule Name
  ,                                       ! Diffuse Solar Day Schedule Name
  0.413,                                  ! ASHRAE Taub {dimensionless}
  2.179;                                  ! ASHRAE Taud {dimensionless}

OS:ComponentData,
  {7252e1ae-fb41-4614-bb4d-f821e71ab54c}, ! Handle
  Component Data 1,                       ! Name
  {154fd8c5-cd78-48bd-a925-1f9910ef63aa}, ! UUID
  {54488251-0e25-432f-a765-cfd7e3d9229e}, ! Version UUID
  1366308023,                             ! Creation Timestamp
  1366308023,                             ! Version Timestamp
  {cca1abd2-56ae-4dc9-982b-ba4288552763}; ! Name of Object 1

