
OS:Version,
  {72b51c34-3224-4038-accf-4d5f4cdeb28b}, ! Handle
  0.9.3;                                  ! Version Identifier

OS:SizingPeriod:DesignDay,
  {c5b85ec8-4768-40e8-85bf-168afd874245}, ! Handle
  DAYTON Ann Htg Wind 99% Condns WS=>MCDB, ! Name
  0.2,                                    ! Maximum Dry-Bulb Temperature {C}
  0,                                      ! Daily Dry-Bulb Temperature Range {deltaC}
  0.2,                                    ! Humidity Indicating Conditions at Maximum Dry-Bulb {BasedOnField A3}
  97703,                                  ! Barometric Pressure {Pa}
  10.8,                                   ! Wind Speed {m/s}
  260,                                    ! Wind Direction {deg}
  0,                                      ! Sky Clearness
  0,                                      ! Rain Indicator
  0,                                      ! Snow Indicator
  21,                                     ! Day of Month
  1,                                      ! Month
  WinterDesignDay,                        ! Day Type
  0,                                      ! Daylight Saving Time Indicator
  Wetbulb,                                ! Humidity Indicating Type
  ,                                       ! Humidity Indicating Day Schedule Name
  DefaultMultipliers,                     ! Dry-Bulb Temperature Range Modifier Type
  ,                                       ! Dry-Bulb Temperature Range Modifier Schedule Name
  ASHRAEClearSky;                         ! Solar Model Indicator

OS:ComponentData,
  {46c8c229-194f-4d6c-8e82-4c58dd3c24e8}, ! Handle
  Component Data 1,                       ! Name
  {34857e61-d0d1-4b92-a7ac-47c6cba4e861}, ! UUID
  {ada0194f-f2f1-49a5-85cb-fbc70173dfe1}, ! Version UUID
  1366309816,                             ! Creation Timestamp
  1366309816,                             ! Version Timestamp
  {c5b85ec8-4768-40e8-85bf-168afd874245}; ! Name of Object 1

