
OS:Version,
  {1f0939f6-26a6-40f4-b682-995e479e858a}, ! Handle
  0.9.3;                                  ! Version Identifier

OS:SizingPeriod:DesignDay,
  {99b0beca-d252-47ae-b970-c611ee5c284e}, ! Handle
  Cedar Rapids Municipal Ap Ann Clg .4% Condns WB=>MDB, ! Name
  30.8,                                   ! Maximum Dry-Bulb Temperature {C}
  10.9,                                   ! Daily Dry-Bulb Temperature Range {deltaC}
  25.9,                                   ! Humidity Indicating Conditions at Maximum Dry-Bulb {BasedOnField A3}
  98287,                                  ! Barometric Pressure {Pa}
  4.8,                                    ! Wind Speed {m/s}
  180,                                    ! Wind Direction {deg}
  0,                                      ! Sky Clearness
  0,                                      ! Rain Indicator
  0,                                      ! Snow Indicator
  21,                                     ! Day of Month
  7,                                      ! Month
  SummerDesignDay,                        ! Day Type
  0,                                      ! Daylight Saving Time Indicator
  Wetbulb,                                ! Humidity Indicating Type
  ,                                       ! Humidity Indicating Day Schedule Name
  DefaultMultipliers,                     ! Dry-Bulb Temperature Range Modifier Type
  ,                                       ! Dry-Bulb Temperature Range Modifier Schedule Name
  ASHRAETau,                              ! Solar Model Indicator
  ,                                       ! Beam Solar Day Schedule Name
  ,                                       ! Diffuse Solar Day Schedule Name
  0.439,                                  ! ASHRAE Taub {dimensionless}
  2.102;                                  ! ASHRAE Taud {dimensionless}

OS:ComponentData,
  {e129f28f-e7ad-4771-a29d-8abe8848b296}, ! Handle
  Component Data 1,                       ! Name
  {8bd793ca-abeb-4010-8b1e-bd5e3d326961}, ! UUID
  {3358d304-ace6-46d5-a71a-056cadb92477}, ! Version UUID
  1366307149,                             ! Creation Timestamp
  1366307149,                             ! Version Timestamp
  {99b0beca-d252-47ae-b970-c611ee5c284e}; ! Name of Object 1

