
OS:Version,
  {a77b489f-9c42-4e74-aeb0-7670c4eebeba}, ! Handle
  0.9.3;                                  ! Version Identifier

OS:SizingPeriod:DesignDay,
  {6526ed77-710b-4486-8ec4-9e2f9a97fbc3}, ! Handle
  Livermore Municipal Ann Clg 1% Condns WB=>MDB, ! Name
  32.9,                                   ! Maximum Dry-Bulb Temperature {C}
  16.2,                                   ! Daily Dry-Bulb Temperature Range {deltaC}
  20.4,                                   ! Humidity Indicating Conditions at Maximum Dry-Bulb {BasedOnField A3}
  99880,                                  ! Barometric Pressure {Pa}
  4.6,                                    ! Wind Speed {m/s}
  270,                                    ! Wind Direction {deg}
  0,                                      ! Sky Clearness
  0,                                      ! Rain Indicator
  0,                                      ! Snow Indicator
  21,                                     ! Day of Month
  7,                                      ! Month
  SummerDesignDay,                        ! Day Type
  0,                                      ! Daylight Saving Time Indicator
  Wetbulb,                                ! Humidity Indicating Type
  ,                                       ! Humidity Indicating Day Schedule Name
  DefaultMultipliers,                     ! Dry-Bulb Temperature Range Modifier Type
  ,                                       ! Dry-Bulb Temperature Range Modifier Schedule Name
  ASHRAETau,                              ! Solar Model Indicator
  ,                                       ! Beam Solar Day Schedule Name
  ,                                       ! Diffuse Solar Day Schedule Name
  0.375,                                  ! ASHRAE Taub {dimensionless}
  2.377;                                  ! ASHRAE Taud {dimensionless}

OS:ComponentData,
  {bcafd1c4-db76-4fcf-b9c4-49049b831535}, ! Handle
  Component Data 1,                       ! Name
  {72c2901f-5aeb-4c24-aacc-d11cdb0b09b0}, ! UUID
  {3f1a0025-e2b6-4fff-903a-4ccce0ddbcca}, ! Version UUID
  1366306464,                             ! Creation Timestamp
  1366306464,                             ! Version Timestamp
  {6526ed77-710b-4486-8ec4-9e2f9a97fbc3}; ! Name of Object 1

