
OS:Version,
  {51dbbdb0-8f52-41af-928c-39e09b20479c}, ! Handle
  0.9.3;                                  ! Version Identifier

OS:SizingPeriod:DesignDay,
  {b66e0e0c-f018-4315-bce3-d7c2cb845d16}, ! Handle
  Glenwood  Asos Ann Clg 1% Condns DB=>MWB, ! Name
  30.2,                                   ! Maximum Dry-Bulb Temperature {C}
  10.7,                                   ! Daily Dry-Bulb Temperature Range {deltaC}
  22.6,                                   ! Humidity Indicating Conditions at Maximum Dry-Bulb {BasedOnField A3}
  96322,                                  ! Barometric Pressure {Pa}
  6.1,                                    ! Wind Speed {m/s}
  180,                                    ! Wind Direction {deg}
  0,                                      ! Sky Clearness
  0,                                      ! Rain Indicator
  0,                                      ! Snow Indicator
  21,                                     ! Day of Month
  7,                                      ! Month
  SummerDesignDay,                        ! Day Type
  0,                                      ! Daylight Saving Time Indicator
  Wetbulb,                                ! Humidity Indicating Type
  ,                                       ! Humidity Indicating Day Schedule Name
  DefaultMultipliers,                     ! Dry-Bulb Temperature Range Modifier Type
  ,                                       ! Dry-Bulb Temperature Range Modifier Schedule Name
  ASHRAETau,                              ! Solar Model Indicator
  ,                                       ! Beam Solar Day Schedule Name
  ,                                       ! Diffuse Solar Day Schedule Name
  0.391,                                  ! ASHRAE Taub {dimensionless}
  2.266;                                  ! ASHRAE Taud {dimensionless}

OS:ComponentData,
  {6b257fc5-0821-4c36-99aa-079e909db392}, ! Handle
  Component Data 1,                       ! Name
  {b25b5876-7b40-42da-b1fd-ca5f0d53b401}, ! UUID
  {fb59866e-21f0-45d9-befe-345a6a57e4a5}, ! Version UUID
  1366308242,                             ! Creation Timestamp
  1366308242,                             ! Version Timestamp
  {b66e0e0c-f018-4315-bce3-d7c2cb845d16}; ! Name of Object 1

