
OS:Version,
  {09c10202-a6fd-4ffd-a337-b1780a123206}, ! Handle
  0.9.3;                                  ! Version Identifier

OS:SizingPeriod:DesignDay,
  {0e88463a-9575-43eb-b561-2c739680fc64}, ! Handle
  Caribou Ann Clg 2% Condns WB=>MDB,      ! Name
  24.1,                                   ! Maximum Dry-Bulb Temperature {C}
  10.9,                                   ! Daily Dry-Bulb Temperature Range {deltaC}
  20.1,                                   ! Humidity Indicating Conditions at Maximum Dry-Bulb {BasedOnField A3}
  99063,                                  ! Barometric Pressure {Pa}
  4.3,                                    ! Wind Speed {m/s}
  250,                                    ! Wind Direction {deg}
  0,                                      ! Sky Clearness
  0,                                      ! Rain Indicator
  0,                                      ! Snow Indicator
  21,                                     ! Day of Month
  7,                                      ! Month
  SummerDesignDay,                        ! Day Type
  0,                                      ! Daylight Saving Time Indicator
  Wetbulb,                                ! Humidity Indicating Type
  ,                                       ! Humidity Indicating Day Schedule Name
  DefaultMultipliers,                     ! Dry-Bulb Temperature Range Modifier Type
  ,                                       ! Dry-Bulb Temperature Range Modifier Schedule Name
  ASHRAETau,                              ! Solar Model Indicator
  ,                                       ! Beam Solar Day Schedule Name
  ,                                       ! Diffuse Solar Day Schedule Name
  0.429,                                  ! ASHRAE Taub {dimensionless}
  2.106;                                  ! ASHRAE Taud {dimensionless}

OS:ComponentData,
  {e641bdf8-0ba7-4f16-ac2e-0ea4db45c73c}, ! Handle
  Component Data 1,                       ! Name
  {df18ad48-0d46-43ce-b163-7284c4f2a52a}, ! UUID
  {7f6d41f4-03e6-4317-9b94-aae8cc2b3dd1}, ! Version UUID
  1366307891,                             ! Creation Timestamp
  1366307891,                             ! Version Timestamp
  {0e88463a-9575-43eb-b561-2c739680fc64}; ! Name of Object 1

