
OS:Version,
  {be728711-971f-4f13-94be-13b566712f9d}, ! Handle
  0.9.3;                                  ! Version Identifier

OS:SizingPeriod:DesignDay,
  {61a560f9-3f5a-4473-b466-08eb5c05cb27}, ! Handle
  Cox Fld Ann Clg .4% Condns DB=>MWB,     ! Name
  37.3,                                   ! Maximum Dry-Bulb Temperature {C}
  12,                                     ! Daily Dry-Bulb Temperature Range {deltaC}
  24.1,                                   ! Humidity Indicating Conditions at Maximum Dry-Bulb {BasedOnField A3}
  99288,                                  ! Barometric Pressure {Pa}
  3.9,                                    ! Wind Speed {m/s}
  220,                                    ! Wind Direction {deg}
  0,                                      ! Sky Clearness
  0,                                      ! Rain Indicator
  0,                                      ! Snow Indicator
  21,                                     ! Day of Month
  8,                                      ! Month
  SummerDesignDay,                        ! Day Type
  0,                                      ! Daylight Saving Time Indicator
  Wetbulb,                                ! Humidity Indicating Type
  ,                                       ! Humidity Indicating Day Schedule Name
  DefaultMultipliers,                     ! Dry-Bulb Temperature Range Modifier Type
  ,                                       ! Dry-Bulb Temperature Range Modifier Schedule Name
  ASHRAETau,                              ! Solar Model Indicator
  ,                                       ! Beam Solar Day Schedule Name
  ,                                       ! Diffuse Solar Day Schedule Name
  0.465,                                  ! ASHRAE Taub {dimensionless}
  2.066;                                  ! ASHRAE Taud {dimensionless}

OS:ComponentData,
  {05814071-eb34-455b-9bb0-d88f9d8dc06a}, ! Handle
  Component Data 1,                       ! Name
  {8f6a5450-a052-4675-aff5-b53935dd8247}, ! UUID
  {1b53c1ec-2574-477a-839d-36f36024042c}, ! Version UUID
  1366310645,                             ! Creation Timestamp
  1366310645,                             ! Version Timestamp
  {61a560f9-3f5a-4473-b466-08eb5c05cb27}; ! Name of Object 1

