
OS:Version,
  {4861547f-07bb-42fc-a847-7f6a83c545a8}, ! Handle
  0.9.3;                                  ! Version Identifier

OS:SizingPeriod:DesignDay,
  {81e6501d-53ef-4270-8786-18ecbfea7b82}, ! Handle
  Atlantic Ann Clg 2% Condns Enth=>MDB,   ! Name
  29.9,                                   ! Maximum Dry-Bulb Temperature {C}
  11.2,                                   ! Daily Dry-Bulb Temperature Range {deltaC}
  78900,                                  ! Humidity Indicating Conditions at Maximum Dry-Bulb {BasedOnField A3}
  97074,                                  ! Barometric Pressure {Pa}
  5.1,                                    ! Wind Speed {m/s}
  190,                                    ! Wind Direction {deg}
  0,                                      ! Sky Clearness
  0,                                      ! Rain Indicator
  0,                                      ! Snow Indicator
  21,                                     ! Day of Month
  7,                                      ! Month
  SummerDesignDay,                        ! Day Type
  0,                                      ! Daylight Saving Time Indicator
  Enthalpy,                               ! Humidity Indicating Type
  ,                                       ! Humidity Indicating Day Schedule Name
  DefaultMultipliers,                     ! Dry-Bulb Temperature Range Modifier Type
  ,                                       ! Dry-Bulb Temperature Range Modifier Schedule Name
  ASHRAETau,                              ! Solar Model Indicator
  ,                                       ! Beam Solar Day Schedule Name
  ,                                       ! Diffuse Solar Day Schedule Name
  0.416,                                  ! ASHRAE Taub {dimensionless}
  2.204;                                  ! ASHRAE Taud {dimensionless}

OS:ComponentData,
  {ed78ea3e-94a0-439f-ad08-6fe99bad7d21}, ! Handle
  Component Data 1,                       ! Name
  {70957479-4739-4c3b-8846-814ec8819510}, ! UUID
  {97a1f319-1551-4b05-b6ae-41d331b56de1}, ! Version UUID
  1366307135,                             ! Creation Timestamp
  1366307135,                             ! Version Timestamp
  {81e6501d-53ef-4270-8786-18ecbfea7b82}; ! Name of Object 1

