
OS:Version,
  {a832423f-6446-4dd6-8609-a446ed108651}, ! Handle
  0.9.3;                                  ! Version Identifier

OS:SizingPeriod:DesignDay,
  {b4830f7c-5772-423b-bf9f-18a810044b9d}, ! Handle
  Glen Burnie/Baltimore/ Ann Clg .4% Condns Enth=>MDB, ! Name
  31.7,                                   ! Maximum Dry-Bulb Temperature {C}
  10.4,                                   ! Daily Dry-Bulb Temperature Range {deltaC}
  78700,                                  ! Humidity Indicating Conditions at Maximum Dry-Bulb {BasedOnField A3}
  100762,                                 ! Barometric Pressure {Pa}
  4.6,                                    ! Wind Speed {m/s}
  280,                                    ! Wind Direction {deg}
  0,                                      ! Sky Clearness
  0,                                      ! Rain Indicator
  0,                                      ! Snow Indicator
  21,                                     ! Day of Month
  7,                                      ! Month
  SummerDesignDay,                        ! Day Type
  0,                                      ! Daylight Saving Time Indicator
  Enthalpy,                               ! Humidity Indicating Type
  ,                                       ! Humidity Indicating Day Schedule Name
  DefaultMultipliers,                     ! Dry-Bulb Temperature Range Modifier Type
  ,                                       ! Dry-Bulb Temperature Range Modifier Schedule Name
  ASHRAETau,                              ! Solar Model Indicator
  ,                                       ! Beam Solar Day Schedule Name
  ,                                       ! Diffuse Solar Day Schedule Name
  0.552,                                  ! ASHRAE Taub {dimensionless}
  1.769;                                  ! ASHRAE Taud {dimensionless}

OS:ComponentData,
  {8f7b4882-1af9-4709-ba49-225480f125cb}, ! Handle
  Component Data 1,                       ! Name
  {8f98044a-7f2a-4aeb-873e-782071c24a27}, ! UUID
  {69d5700b-2f73-4124-9446-4ee76c504b3e}, ! Version UUID
  1366307838,                             ! Creation Timestamp
  1366307838,                             ! Version Timestamp
  {b4830f7c-5772-423b-bf9f-18a810044b9d}; ! Name of Object 1

