
OS:Version,
  {4d6534b2-5cbe-4eb5-9df3-672f22fcab59}, ! Handle
  0.9.3;                                  ! Version Identifier

OS:SizingPeriod:DesignDay,
  {0e563c50-7a26-41e9-a030-eb7418ded3b9}, ! Handle
  Arcata/Eureka Ann Clg .4% Condns DB=>MWB, ! Name
  21.6,                                   ! Maximum Dry-Bulb Temperature {C}
  6.5,                                    ! Daily Dry-Bulb Temperature Range {deltaC}
  15.2,                                   ! Humidity Indicating Conditions at Maximum Dry-Bulb {BasedOnField A3}
  100535,                                 ! Barometric Pressure {Pa}
  4.3,                                    ! Wind Speed {m/s}
  320,                                    ! Wind Direction {deg}
  0,                                      ! Sky Clearness
  0,                                      ! Rain Indicator
  0,                                      ! Snow Indicator
  21,                                     ! Day of Month
  8,                                      ! Month
  SummerDesignDay,                        ! Day Type
  0,                                      ! Daylight Saving Time Indicator
  Wetbulb,                                ! Humidity Indicating Type
  ,                                       ! Humidity Indicating Day Schedule Name
  DefaultMultipliers,                     ! Dry-Bulb Temperature Range Modifier Type
  ,                                       ! Dry-Bulb Temperature Range Modifier Schedule Name
  ASHRAETau,                              ! Solar Model Indicator
  ,                                       ! Beam Solar Day Schedule Name
  ,                                       ! Diffuse Solar Day Schedule Name
  0.365,                                  ! ASHRAE Taub {dimensionless}
  2.513;                                  ! ASHRAE Taud {dimensionless}

