
OS:Version,
  {0cc9a10b-519a-483f-b7f7-ac7613a6df4c}, ! Handle
  0.9.3;                                  ! Version Identifier

OS:SizingPeriod:DesignDay,
  {19ed297c-46a9-49f1-9683-3f155d80c06c}, ! Handle
  LUBBOCK Ann Clg 1% Condns DB=>MWB,      ! Name
  35.7,                                   ! Maximum Dry-Bulb Temperature {C}
  13.1,                                   ! Daily Dry-Bulb Temperature Range {deltaC}
  19.7,                                   ! Humidity Indicating Conditions at Maximum Dry-Bulb {BasedOnField A3}
  90005,                                  ! Barometric Pressure {Pa}
  6.4,                                    ! Wind Speed {m/s}
  170,                                    ! Wind Direction {deg}
  0,                                      ! Sky Clearness
  0,                                      ! Rain Indicator
  0,                                      ! Snow Indicator
  21,                                     ! Day of Month
  7,                                      ! Month
  SummerDesignDay,                        ! Day Type
  0,                                      ! Daylight Saving Time Indicator
  Wetbulb,                                ! Humidity Indicating Type
  ,                                       ! Humidity Indicating Day Schedule Name
  DefaultMultipliers,                     ! Dry-Bulb Temperature Range Modifier Type
  ,                                       ! Dry-Bulb Temperature Range Modifier Schedule Name
  ASHRAETau,                              ! Solar Model Indicator
  ,                                       ! Beam Solar Day Schedule Name
  ,                                       ! Diffuse Solar Day Schedule Name
  0.396,                                  ! ASHRAE Taub {dimensionless}
  2.241;                                  ! ASHRAE Taud {dimensionless}

OS:ComponentData,
  {b8e796dd-7607-40c5-825e-4ce53b586657}, ! Handle
  Component Data 1,                       ! Name
  {26c8998c-0157-499c-b1d9-e8a159b8c51a}, ! UUID
  {51667cb3-a8a9-42a3-84ee-21a6db179ab6}, ! Version UUID
  1366310791,                             ! Creation Timestamp
  1366310791,                             ! Version Timestamp
  {19ed297c-46a9-49f1-9683-3f155d80c06c}; ! Name of Object 1

