
OS:Version,
  {b9cee938-0104-4ff5-add3-951cb6a2fb61}, ! Handle
  0.9.3;                                  ! Version Identifier

OS:SizingPeriod:DesignDay,
  {c565044b-f045-4fa1-971d-7c21117e26db}, ! Handle
  Barksdale Afb Ann Htg 99.6% Condns DB,  ! Name
  -5.3,                                   ! Maximum Dry-Bulb Temperature {C}
  0,                                      ! Daily Dry-Bulb Temperature Range {deltaC}
  -5.3,                                   ! Humidity Indicating Conditions at Maximum Dry-Bulb {BasedOnField A3}
  100678,                                 ! Barometric Pressure {Pa}
  2.9,                                    ! Wind Speed {m/s}
  330,                                    ! Wind Direction {deg}
  0,                                      ! Sky Clearness
  0,                                      ! Rain Indicator
  0,                                      ! Snow Indicator
  21,                                     ! Day of Month
  1,                                      ! Month
  WinterDesignDay,                        ! Day Type
  0,                                      ! Daylight Saving Time Indicator
  Wetbulb,                                ! Humidity Indicating Type
  ,                                       ! Humidity Indicating Day Schedule Name
  DefaultMultipliers,                     ! Dry-Bulb Temperature Range Modifier Type
  ,                                       ! Dry-Bulb Temperature Range Modifier Schedule Name
  ASHRAEClearSky;                         ! Solar Model Indicator

OS:ComponentData,
  {51f15134-ea70-4957-b5c3-e8a9d8895b0f}, ! Handle
  Component Data 1,                       ! Name
  {6f046df3-e19d-45ad-8194-aa8e42f03829}, ! UUID
  {e285fd8a-b9d9-45d9-ba1a-736347003d1e}, ! Version UUID
  1366307698,                             ! Creation Timestamp
  1366307698,                             ! Version Timestamp
  {c565044b-f045-4fa1-971d-7c21117e26db}; ! Name of Object 1

