
OS:Version,
  {9ca70dfd-b385-468d-ad49-b05a4830d602}, ! Handle
  0.9.3;                                  ! Version Identifier

OS:SizingPeriod:DesignDay,
  {ae157d83-2050-4184-9f03-389bf0bb7610}, ! Handle
  LITTLE_ROCK Ann Clg 2% Condns Enth=>MDB, ! Name
  31.7,                                   ! Maximum Dry-Bulb Temperature {C}
  11.1,                                   ! Daily Dry-Bulb Temperature Range {deltaC}
  81100,                                  ! Humidity Indicating Conditions at Maximum Dry-Bulb {BasedOnField A3}
  100356,                                 ! Barometric Pressure {Pa}
  3.5,                                    ! Wind Speed {m/s}
  190,                                    ! Wind Direction {deg}
  0,                                      ! Sky Clearness
  0,                                      ! Rain Indicator
  0,                                      ! Snow Indicator
  21,                                     ! Day of Month
  7,                                      ! Month
  SummerDesignDay,                        ! Day Type
  0,                                      ! Daylight Saving Time Indicator
  Enthalpy,                               ! Humidity Indicating Type
  ,                                       ! Humidity Indicating Day Schedule Name
  DefaultMultipliers,                     ! Dry-Bulb Temperature Range Modifier Type
  ,                                       ! Dry-Bulb Temperature Range Modifier Schedule Name
  ASHRAETau,                              ! Solar Model Indicator
  ,                                       ! Beam Solar Day Schedule Name
  ,                                       ! Diffuse Solar Day Schedule Name
  0.512,                                  ! ASHRAE Taub {dimensionless}
  1.909;                                  ! ASHRAE Taud {dimensionless}

OS:ComponentData,
  {bdd73091-ef89-4af0-b5b7-d6533ba33e27}, ! Handle
  Component Data 1,                       ! Name
  {51f92c92-0ef0-44f9-a653-1f28d5384960}, ! UUID
  {1802d1e6-5451-420b-ab16-50e789cfa341}, ! Version UUID
  1366306232,                             ! Creation Timestamp
  1366306232,                             ! Version Timestamp
  {ae157d83-2050-4184-9f03-389bf0bb7610}; ! Name of Object 1

