
OS:Version,
  {4fa3a78d-ae89-4a12-9a5e-96f969fd0c90}, ! Handle
  0.9.3;                                  ! Version Identifier

OS:SizingPeriod:DesignDay,
  {b842f376-daa5-4a19-95dd-bfd0a2029ff7}, ! Handle
  Goodland Renner Field Ann Clg 2% Condns WB=>MDB, ! Name
  29.2,                                   ! Maximum Dry-Bulb Temperature {C}
  15,                                     ! Daily Dry-Bulb Temperature Range {deltaC}
  20.4,                                   ! Humidity Indicating Conditions at Maximum Dry-Bulb {BasedOnField A3}
  88671,                                  ! Barometric Pressure {Pa}
  6,                                      ! Wind Speed {m/s}
  160,                                    ! Wind Direction {deg}
  0,                                      ! Sky Clearness
  0,                                      ! Rain Indicator
  0,                                      ! Snow Indicator
  21,                                     ! Day of Month
  7,                                      ! Month
  SummerDesignDay,                        ! Day Type
  0,                                      ! Daylight Saving Time Indicator
  Wetbulb,                                ! Humidity Indicating Type
  ,                                       ! Humidity Indicating Day Schedule Name
  DefaultMultipliers,                     ! Dry-Bulb Temperature Range Modifier Type
  ,                                       ! Dry-Bulb Temperature Range Modifier Schedule Name
  ASHRAETau,                              ! Solar Model Indicator
  ,                                       ! Beam Solar Day Schedule Name
  ,                                       ! Diffuse Solar Day Schedule Name
  0.421,                                  ! ASHRAE Taub {dimensionless}
  2.065;                                  ! ASHRAE Taud {dimensionless}

OS:ComponentData,
  {bf895dab-2df9-45db-a45a-5f34019738a6}, ! Handle
  Component Data 1,                       ! Name
  {1bf606ce-a110-49ad-b1ab-14b6aa1237c0}, ! UUID
  {06d7cbaf-d02b-420b-ab17-dc1f2608a17f}, ! Version UUID
  1366307534,                             ! Creation Timestamp
  1366307534,                             ! Version Timestamp
  {b842f376-daa5-4a19-95dd-bfd0a2029ff7}; ! Name of Object 1

