
OS:Version,
  {88f06738-9f79-484b-8b42-64ed26f8e83c}, ! Handle
  0.9.3;                                  ! Version Identifier

OS:SizingPeriod:DesignDay,
  {0c5e40c9-ead2-40fb-b273-5cb1c537dd14}, ! Handle
  BUFFALO Ann Clg 1% Condns DP=>MDB,      ! Name
  25.4,                                   ! Maximum Dry-Bulb Temperature {C}
  9.3,                                    ! Daily Dry-Bulb Temperature Range {deltaC}
  21.5,                                   ! Humidity Indicating Conditions at Maximum Dry-Bulb {BasedOnField A3}
  98769,                                  ! Barometric Pressure {Pa}
  5.7,                                    ! Wind Speed {m/s}
  240,                                    ! Wind Direction {deg}
  0,                                      ! Sky Clearness
  0,                                      ! Rain Indicator
  0,                                      ! Snow Indicator
  21,                                     ! Day of Month
  7,                                      ! Month
  SummerDesignDay,                        ! Day Type
  0,                                      ! Daylight Saving Time Indicator
  Dewpoint,                               ! Humidity Indicating Type
  ,                                       ! Humidity Indicating Day Schedule Name
  DefaultMultipliers,                     ! Dry-Bulb Temperature Range Modifier Type
  ,                                       ! Dry-Bulb Temperature Range Modifier Schedule Name
  ASHRAETau,                              ! Solar Model Indicator
  ,                                       ! Beam Solar Day Schedule Name
  ,                                       ! Diffuse Solar Day Schedule Name
  0.462,                                  ! ASHRAE Taub {dimensionless}
  2.001;                                  ! ASHRAE Taud {dimensionless}

