
OS:Version,
  {8f681ce6-11a8-4492-a6e4-06279b76f26d}, ! Handle
  0.9.3;                                  ! Version Identifier

OS:SizingPeriod:DesignDay,
  {25cf5e8f-3a7d-47a9-b0df-3414b51297c8}, ! Handle
  Glens Falls Ap Ann Htg Wind 99% Condns WS=>MCDB, ! Name
  -5.1,                                   ! Maximum Dry-Bulb Temperature {C}
  0,                                      ! Daily Dry-Bulb Temperature Range {deltaC}
  -5.1,                                   ! Humidity Indicating Conditions at Maximum Dry-Bulb {BasedOnField A3}
  100153,                                 ! Barometric Pressure {Pa}
  8.2,                                    ! Wind Speed {m/s}
  320,                                    ! Wind Direction {deg}
  0,                                      ! Sky Clearness
  0,                                      ! Rain Indicator
  0,                                      ! Snow Indicator
  21,                                     ! Day of Month
  1,                                      ! Month
  WinterDesignDay,                        ! Day Type
  0,                                      ! Daylight Saving Time Indicator
  Wetbulb,                                ! Humidity Indicating Type
  ,                                       ! Humidity Indicating Day Schedule Name
  DefaultMultipliers,                     ! Dry-Bulb Temperature Range Modifier Type
  ,                                       ! Dry-Bulb Temperature Range Modifier Schedule Name
  ASHRAEClearSky;                         ! Solar Model Indicator

OS:ComponentData,
  {8a62c8c0-eb8d-48b5-9ae6-903f79509a46}, ! Handle
  Component Data 1,                       ! Name
  {7c4cede7-6648-41ce-abe2-494659caed21}, ! UUID
  {cc09b034-167e-41e1-98a0-e68302c791ea}, ! Version UUID
  1366309625,                             ! Creation Timestamp
  1366309625,                             ! Version Timestamp
  {25cf5e8f-3a7d-47a9-b0df-3414b51297c8}; ! Name of Object 1

