
OS:Version,
  {e9946b74-2cf5-46f9-a1cc-27c54dbd0401}, ! Handle
  0.9.3;                                  ! Version Identifier

OS:SizingPeriod:DesignDay,
  {ddf2d921-9051-419f-8f3d-2759cf3587ba}, ! Handle
  Kotzebue Ralph Wein Memorial Ann Hum_n 99% Condns DP=>MCDB, ! Name
  -32.2,                                  ! Maximum Dry-Bulb Temperature {C}
  0,                                      ! Daily Dry-Bulb Temperature Range {deltaC}
  -37.3,                                  ! Humidity Indicating Conditions at Maximum Dry-Bulb {BasedOnField A3}
  101289,                                 ! Barometric Pressure {Pa}
  2.6,                                    ! Wind Speed {m/s}
  80,                                     ! Wind Direction {deg}
  0,                                      ! Sky Clearness
  0,                                      ! Rain Indicator
  0,                                      ! Snow Indicator
  21,                                     ! Day of Month
  1,                                      ! Month
  WinterDesignDay,                        ! Day Type
  0,                                      ! Daylight Saving Time Indicator
  Dewpoint,                               ! Humidity Indicating Type
  ,                                       ! Humidity Indicating Day Schedule Name
  DefaultMultipliers,                     ! Dry-Bulb Temperature Range Modifier Type
  ,                                       ! Dry-Bulb Temperature Range Modifier Schedule Name
  ASHRAEClearSky;                         ! Solar Model Indicator

OS:ComponentData,
  {ae45014b-b211-4022-a5b1-c5b3b15cee68}, ! Handle
  Component Data 1,                       ! Name
  {989a7ae0-0608-4b13-8ccd-6ad41cc68480}, ! UUID
  {2a0a084a-bf21-4d7e-9e42-9b4cb79a7a35}, ! Version UUID
  1366305387,                             ! Creation Timestamp
  1366305387,                             ! Version Timestamp
  {ddf2d921-9051-419f-8f3d-2759cf3587ba}; ! Name of Object 1

