
OS:Version,
  {1bea03b4-9cf8-4a23-bb50-c576d281ac04}, ! Handle
  0.9.3;                                  ! Version Identifier

OS:SizingPeriod:DesignDay,
  {8a630445-d590-470a-b8f6-05dad950cb74}, ! Handle
  Knoxville Ann Clg .4% Condns Enth=>MDB, ! Name
  31,                                     ! Maximum Dry-Bulb Temperature {C}
  10.4,                                   ! Daily Dry-Bulb Temperature Range {deltaC}
  77500,                                  ! Humidity Indicating Conditions at Maximum Dry-Bulb {BasedOnField A3}
  97784,                                  ! Barometric Pressure {Pa}
  3.2,                                    ! Wind Speed {m/s}
  250,                                    ! Wind Direction {deg}
  0,                                      ! Sky Clearness
  0,                                      ! Rain Indicator
  0,                                      ! Snow Indicator
  21,                                     ! Day of Month
  7,                                      ! Month
  SummerDesignDay,                        ! Day Type
  0,                                      ! Daylight Saving Time Indicator
  Enthalpy,                               ! Humidity Indicating Type
  ,                                       ! Humidity Indicating Day Schedule Name
  DefaultMultipliers,                     ! Dry-Bulb Temperature Range Modifier Type
  ,                                       ! Dry-Bulb Temperature Range Modifier Schedule Name
  ASHRAETau,                              ! Solar Model Indicator
  ,                                       ! Beam Solar Day Schedule Name
  ,                                       ! Diffuse Solar Day Schedule Name
  0.547,                                  ! ASHRAE Taub {dimensionless}
  1.786;                                  ! ASHRAE Taud {dimensionless}

OS:ComponentData,
  {6c3a467f-3fde-47a4-b027-0d5c22d6958c}, ! Handle
  Component Data 1,                       ! Name
  {139635aa-72cb-431e-8429-3c3ad559b423}, ! UUID
  {58942848-5fb8-4b2f-a4e1-0ae27951218d}, ! Version UUID
  1366310510,                             ! Creation Timestamp
  1366310510,                             ! Version Timestamp
  {8a630445-d590-470a-b8f6-05dad950cb74}; ! Name of Object 1

