
OS:Version,
  {a2f54258-2a37-468f-93b8-496ea5077de2}, ! Handle
  0.9.3;                                  ! Version Identifier

OS:SizingPeriod:DesignDay,
  {7baaf5c9-f3d6-4492-8103-65f917737cf7}, ! Handle
  Houston/Intercontinent Ann Clg 2% Condns DB=>MWB, ! Name
  34,                                     ! Maximum Dry-Bulb Temperature {C}
  10.1,                                   ! Daily Dry-Bulb Temperature Range {deltaC}
  24.8,                                   ! Humidity Indicating Conditions at Maximum Dry-Bulb {BasedOnField A3}
  100929,                                 ! Barometric Pressure {Pa}
  3.5,                                    ! Wind Speed {m/s}
  170,                                    ! Wind Direction {deg}
  0,                                      ! Sky Clearness
  0,                                      ! Rain Indicator
  0,                                      ! Snow Indicator
  21,                                     ! Day of Month
  7,                                      ! Month
  SummerDesignDay,                        ! Day Type
  0,                                      ! Daylight Saving Time Indicator
  Wetbulb,                                ! Humidity Indicating Type
  ,                                       ! Humidity Indicating Day Schedule Name
  DefaultMultipliers,                     ! Dry-Bulb Temperature Range Modifier Type
  ,                                       ! Dry-Bulb Temperature Range Modifier Schedule Name
  ASHRAETau,                              ! Solar Model Indicator
  ,                                       ! Beam Solar Day Schedule Name
  ,                                       ! Diffuse Solar Day Schedule Name
  0.499,                                  ! ASHRAE Taub {dimensionless}
  1.97;                                   ! ASHRAE Taud {dimensionless}

OS:ComponentData,
  {067b4d9e-4af2-4b8b-aab1-ed6f8efb0ebd}, ! Handle
  Component Data 1,                       ! Name
  {ed791163-96f5-405f-bf45-28750b841aa7}, ! UUID
  {362e09f5-8b50-4b46-8cdf-608a3d9af941}, ! Version UUID
  1366310739,                             ! Creation Timestamp
  1366310739,                             ! Version Timestamp
  {7baaf5c9-f3d6-4492-8103-65f917737cf7}; ! Name of Object 1

