
OS:Version,
  {9f561c83-a1cb-49a3-b92b-c9558c514a13}, ! Handle
  0.9.3;                                  ! Version Identifier

OS:SizingPeriod:DesignDay,
  {5b83bae8-0372-452c-ba62-14c69fd483ac}, ! Handle
  Little Rock Adams Field Ann Clg .4% Condns DB=>MWB, ! Name
  36.7,                                   ! Maximum Dry-Bulb Temperature {C}
  10.6,                                   ! Daily Dry-Bulb Temperature Range {deltaC}
  25.1,                                   ! Humidity Indicating Conditions at Maximum Dry-Bulb {BasedOnField A3}
  100391,                                 ! Barometric Pressure {Pa}
  3.9,                                    ! Wind Speed {m/s}
  200,                                    ! Wind Direction {deg}
  0,                                      ! Sky Clearness
  0,                                      ! Rain Indicator
  0,                                      ! Snow Indicator
  21,                                     ! Day of Month
  7,                                      ! Month
  SummerDesignDay,                        ! Day Type
  0,                                      ! Daylight Saving Time Indicator
  Wetbulb,                                ! Humidity Indicating Type
  ,                                       ! Humidity Indicating Day Schedule Name
  DefaultMultipliers,                     ! Dry-Bulb Temperature Range Modifier Type
  ,                                       ! Dry-Bulb Temperature Range Modifier Schedule Name
  ASHRAETau,                              ! Solar Model Indicator
  ,                                       ! Beam Solar Day Schedule Name
  ,                                       ! Diffuse Solar Day Schedule Name
  0.517,                                  ! ASHRAE Taub {dimensionless}
  1.901;                                  ! ASHRAE Taud {dimensionless}

OS:ComponentData,
  {bfe6cd45-1251-4054-9bbf-a8e96000adb2}, ! Handle
  Component Data 1,                       ! Name
  {45456e07-43a1-4642-ac90-0f2b6fe08bce}, ! UUID
  {8d189e5c-165f-448e-acfc-3461600b1c65}, ! Version UUID
  1366306229,                             ! Creation Timestamp
  1366306229,                             ! Version Timestamp
  {5b83bae8-0372-452c-ba62-14c69fd483ac}; ! Name of Object 1

