
OS:Version,
  {297da64a-0fbf-48f6-820f-bcedcbac0f0a}, ! Handle
  0.9.3;                                  ! Version Identifier

OS:SizingPeriod:DesignDay,
  {187c9775-cc1c-4944-96b8-cb10a45e162c}, ! Handle
  Lexington Ann Clg .4% Condns WB=>MDB,   ! Name
  30.7,                                   ! Maximum Dry-Bulb Temperature {C}
  10.2,                                   ! Daily Dry-Bulb Temperature Range {deltaC}
  25.2,                                   ! Humidity Indicating Conditions at Maximum Dry-Bulb {BasedOnField A3}
  97761,                                  ! Barometric Pressure {Pa}
  3.7,                                    ! Wind Speed {m/s}
  250,                                    ! Wind Direction {deg}
  0,                                      ! Sky Clearness
  0,                                      ! Rain Indicator
  0,                                      ! Snow Indicator
  21,                                     ! Day of Month
  7,                                      ! Month
  SummerDesignDay,                        ! Day Type
  0,                                      ! Daylight Saving Time Indicator
  Wetbulb,                                ! Humidity Indicating Type
  ,                                       ! Humidity Indicating Day Schedule Name
  DefaultMultipliers,                     ! Dry-Bulb Temperature Range Modifier Type
  ,                                       ! Dry-Bulb Temperature Range Modifier Schedule Name
  ASHRAETau,                              ! Solar Model Indicator
  ,                                       ! Beam Solar Day Schedule Name
  ,                                       ! Diffuse Solar Day Schedule Name
  0.503,                                  ! ASHRAE Taub {dimensionless}
  1.885;                                  ! ASHRAE Taud {dimensionless}

OS:ComponentData,
  {d37dc479-53f3-41a8-a077-437547b277b4}, ! Handle
  Component Data 1,                       ! Name
  {59f8038e-1b50-4e33-a846-e7bd449bc0eb}, ! UUID
  {515b0ac3-dac6-4eca-8ed6-31c7edc8d8ad}, ! Version UUID
  1366307648,                             ! Creation Timestamp
  1366307648,                             ! Version Timestamp
  {187c9775-cc1c-4944-96b8-cb10a45e162c}; ! Name of Object 1

