
OS:Version,
  {633bbac8-6bc7-4f56-a6f8-550961473719}, ! Handle
  0.9.3;                                  ! Version Identifier

OS:SizingPeriod:DesignDay,
  {16214d79-8503-4cdb-9f4e-2d06b52cef3a}, ! Handle
  Kalispell Glacier Pk IntL Ar Ann Clg .4% Condns DP=>MDB, ! Name
  20.8,                                   ! Maximum Dry-Bulb Temperature {C}
  17,                                     ! Daily Dry-Bulb Temperature Range {deltaC}
  15.3,                                   ! Humidity Indicating Conditions at Maximum Dry-Bulb {BasedOnField A3}
  90904,                                  ! Barometric Pressure {Pa}
  3.6,                                    ! Wind Speed {m/s}
  160,                                    ! Wind Direction {deg}
  0,                                      ! Sky Clearness
  0,                                      ! Rain Indicator
  0,                                      ! Snow Indicator
  21,                                     ! Day of Month
  7,                                      ! Month
  SummerDesignDay,                        ! Day Type
  0,                                      ! Daylight Saving Time Indicator
  Dewpoint,                               ! Humidity Indicating Type
  ,                                       ! Humidity Indicating Day Schedule Name
  DefaultMultipliers,                     ! Dry-Bulb Temperature Range Modifier Type
  ,                                       ! Dry-Bulb Temperature Range Modifier Schedule Name
  ASHRAETau,                              ! Solar Model Indicator
  ,                                       ! Beam Solar Day Schedule Name
  ,                                       ! Diffuse Solar Day Schedule Name
  0.355,                                  ! ASHRAE Taub {dimensionless}
  2.406;                                  ! ASHRAE Taud {dimensionless}

OS:ComponentData,
  {042a0ff4-305f-48d0-ba19-e92b57bc54b1}, ! Handle
  Component Data 1,                       ! Name
  {ee9749e8-43ce-4143-bb21-e6e0cc8f6732}, ! UUID
  {2a0b69c5-2b22-4ccb-bd88-75dbe1f52724}, ! Version UUID
  1366308804,                             ! Creation Timestamp
  1366308804,                             ! Version Timestamp
  {16214d79-8503-4cdb-9f4e-2d06b52cef3a}; ! Name of Object 1

