
OS:Version,
  {4045c3e7-46af-40ca-ab47-319e594ff912}, ! Handle
  0.9.3;                                  ! Version Identifier

OS:SizingPeriod:DesignDay,
  {5f95c285-36d8-460b-a5dd-82a054ac7739}, ! Handle
  Dover Afb Ann Clg 1% Condns Enth=>MDB,  ! Name
  29.5,                                   ! Maximum Dry-Bulb Temperature {C}
  9.1,                                    ! Daily Dry-Bulb Temperature Range {deltaC}
  76900,                                  ! Humidity Indicating Conditions at Maximum Dry-Bulb {BasedOnField A3}
  101241,                                 ! Barometric Pressure {Pa}
  4.2,                                    ! Wind Speed {m/s}
  240,                                    ! Wind Direction {deg}
  0,                                      ! Sky Clearness
  0,                                      ! Rain Indicator
  0,                                      ! Snow Indicator
  21,                                     ! Day of Month
  7,                                      ! Month
  SummerDesignDay,                        ! Day Type
  0,                                      ! Daylight Saving Time Indicator
  Enthalpy,                               ! Humidity Indicating Type
  ,                                       ! Humidity Indicating Day Schedule Name
  DefaultMultipliers,                     ! Dry-Bulb Temperature Range Modifier Type
  ,                                       ! Dry-Bulb Temperature Range Modifier Schedule Name
  ASHRAETau,                              ! Solar Model Indicator
  ,                                       ! Beam Solar Day Schedule Name
  ,                                       ! Diffuse Solar Day Schedule Name
  0.575,                                  ! ASHRAE Taub {dimensionless}
  1.719;                                  ! ASHRAE Taud {dimensionless}

OS:ComponentData,
  {2f453889-b13c-480b-b631-e311452623c6}, ! Handle
  Component Data 1,                       ! Name
  {56a1ac18-b32e-4d8d-b41c-1fd1e2bf5359}, ! UUID
  {1a570463-fd77-4ad3-aed3-df5b7da7bb85}, ! Version UUID
  1366306771,                             ! Creation Timestamp
  1366306771,                             ! Version Timestamp
  {5f95c285-36d8-460b-a5dd-82a054ac7739}; ! Name of Object 1

