
OS:Version,
  {1768fa78-2206-4035-9daf-2749fa888b84}, ! Handle
  0.9.3;                                  ! Version Identifier

OS:SizingPeriod:DesignDay,
  {2a6b0da6-8a2d-4585-9538-55eb209ef274}, ! Handle
  Cortez Montezuma Co Ann Clg 1% Condns Enth=>MDB, ! Name
  27.8,                                   ! Maximum Dry-Bulb Temperature {C}
  19.3,                                   ! Daily Dry-Bulb Temperature Range {deltaC}
  57000,                                  ! Humidity Indicating Conditions at Maximum Dry-Bulb {BasedOnField A3}
  81459,                                  ! Barometric Pressure {Pa}
  4.8,                                    ! Wind Speed {m/s}
  290,                                    ! Wind Direction {deg}
  0,                                      ! Sky Clearness
  0,                                      ! Rain Indicator
  0,                                      ! Snow Indicator
  21,                                     ! Day of Month
  7,                                      ! Month
  SummerDesignDay,                        ! Day Type
  0,                                      ! Daylight Saving Time Indicator
  Enthalpy,                               ! Humidity Indicating Type
  ,                                       ! Humidity Indicating Day Schedule Name
  DefaultMultipliers,                     ! Dry-Bulb Temperature Range Modifier Type
  ,                                       ! Dry-Bulb Temperature Range Modifier Schedule Name
  ASHRAETau,                              ! Solar Model Indicator
  ,                                       ! Beam Solar Day Schedule Name
  ,                                       ! Diffuse Solar Day Schedule Name
  0.384,                                  ! ASHRAE Taub {dimensionless}
  2.183;                                  ! ASHRAE Taud {dimensionless}

OS:ComponentData,
  {75d38e0e-f1cc-4a3a-bd8d-7aa3b34aa93f}, ! Handle
  Component Data 1,                       ! Name
  {cadd166f-1e62-46c2-8aee-49d7cf0596b3}, ! UUID
  {92218be8-d739-4111-a3e2-9674dfca5433}, ! Version UUID
  1366306669,                             ! Creation Timestamp
  1366306669,                             ! Version Timestamp
  {2a6b0da6-8a2d-4585-9538-55eb209ef274}; ! Name of Object 1

