
OS:Version,
  {676bc9a8-08bf-4ab9-be3f-d993a056ce3d}, ! Handle
  0.9.3;                                  ! Version Identifier

OS:SizingPeriod:DesignDay,
  {66d9053a-a7e8-48b2-aad1-e4a3a6456265}, ! Handle
  Limon Ann Clg .4% Condns DB=>MWB,       ! Name
  33,                                     ! Maximum Dry-Bulb Temperature {C}
  16.7,                                   ! Daily Dry-Bulb Temperature Range {deltaC}
  15.8,                                   ! Humidity Indicating Conditions at Maximum Dry-Bulb {BasedOnField A3}
  82552,                                  ! Barometric Pressure {Pa}
  5.5,                                    ! Wind Speed {m/s}
  170,                                    ! Wind Direction {deg}
  0,                                      ! Sky Clearness
  0,                                      ! Rain Indicator
  0,                                      ! Snow Indicator
  21,                                     ! Day of Month
  7,                                      ! Month
  SummerDesignDay,                        ! Day Type
  0,                                      ! Daylight Saving Time Indicator
  Wetbulb,                                ! Humidity Indicating Type
  ,                                       ! Humidity Indicating Day Schedule Name
  DefaultMultipliers,                     ! Dry-Bulb Temperature Range Modifier Type
  ,                                       ! Dry-Bulb Temperature Range Modifier Schedule Name
  ASHRAETau,                              ! Solar Model Indicator
  ,                                       ! Beam Solar Day Schedule Name
  ,                                       ! Diffuse Solar Day Schedule Name
  0.412,                                  ! ASHRAE Taub {dimensionless}
  2.036;                                  ! ASHRAE Taud {dimensionless}

OS:ComponentData,
  {87d8fd4a-ea9a-4cfa-acbf-ab6c94a0deed}, ! Handle
  Component Data 1,                       ! Name
  {39c194c5-94b8-4731-80d7-05025d6a05ba}, ! UUID
  {a6dd57c1-485c-4edb-b7b0-2e6a3d697019}, ! Version UUID
  1366306720,                             ! Creation Timestamp
  1366306720,                             ! Version Timestamp
  {66d9053a-a7e8-48b2-aad1-e4a3a6456265}; ! Name of Object 1

