
OS:Version,
  {0b101999-8584-4bf9-9a15-031531f04b31}, ! Handle
  0.9.3;                                  ! Version Identifier

OS:SizingPeriod:DesignDay,
  {a8adc8a9-4297-4abf-9250-cba82f3204b9}, ! Handle
  Auburn Opelika Apt Ann Clg 1% Condns DP=>MDB, ! Name
  26.6,                                   ! Maximum Dry-Bulb Temperature {C}
  9.6,                                    ! Daily Dry-Bulb Temperature Range {deltaC}
  22.9,                                   ! Humidity Indicating Conditions at Maximum Dry-Bulb {BasedOnField A3}
  98522,                                  ! Barometric Pressure {Pa}
  3.2,                                    ! Wind Speed {m/s}
  280,                                    ! Wind Direction {deg}
  0,                                      ! Sky Clearness
  0,                                      ! Rain Indicator
  0,                                      ! Snow Indicator
  21,                                     ! Day of Month
  7,                                      ! Month
  SummerDesignDay,                        ! Day Type
  0,                                      ! Daylight Saving Time Indicator
  Dewpoint,                               ! Humidity Indicating Type
  ,                                       ! Humidity Indicating Day Schedule Name
  DefaultMultipliers,                     ! Dry-Bulb Temperature Range Modifier Type
  ,                                       ! Dry-Bulb Temperature Range Modifier Schedule Name
  ASHRAETau,                              ! Solar Model Indicator
  ,                                       ! Beam Solar Day Schedule Name
  ,                                       ! Diffuse Solar Day Schedule Name
  0.556,                                  ! ASHRAE Taub {dimensionless}
  1.789;                                  ! ASHRAE Taud {dimensionless}

OS:ComponentData,
  {4b44ea2f-bed8-47f7-a304-4f955bff4c54}, ! Handle
  Component Data 1,                       ! Name
  {6c6b866b-24be-4e94-8b3d-292419d3f60a}, ! UUID
  {e6e32b1c-f00b-4234-a585-62390efa97ac}, ! Version UUID
  1366305638,                             ! Creation Timestamp
  1366305638,                             ! Version Timestamp
  {a8adc8a9-4297-4abf-9250-cba82f3204b9}; ! Name of Object 1

