
OS:Version,
  {bb8e415e-89a3-4b95-91ec-56b9dd8cd398}, ! Handle
  0.9.3;                                  ! Version Identifier

OS:SizingPeriod:DesignDay,
  {d790338f-1394-4dab-8ef9-12a1d06fe4e4}, ! Handle
  CHEYENNE Ann Clg .4% Condns WB=>MDB,    ! Name
  25.3,                                   ! Maximum Dry-Bulb Temperature {C}
  14.6,                                   ! Daily Dry-Bulb Temperature Range {deltaC}
  17.2,                                   ! Humidity Indicating Conditions at Maximum Dry-Bulb {BasedOnField A3}
  80767,                                  ! Barometric Pressure {Pa}
  5.3,                                    ! Wind Speed {m/s}
  170,                                    ! Wind Direction {deg}
  0,                                      ! Sky Clearness
  0,                                      ! Rain Indicator
  0,                                      ! Snow Indicator
  21,                                     ! Day of Month
  7,                                      ! Month
  SummerDesignDay,                        ! Day Type
  0,                                      ! Daylight Saving Time Indicator
  Wetbulb,                                ! Humidity Indicating Type
  ,                                       ! Humidity Indicating Day Schedule Name
  DefaultMultipliers,                     ! Dry-Bulb Temperature Range Modifier Type
  ,                                       ! Dry-Bulb Temperature Range Modifier Schedule Name
  ASHRAETau,                              ! Solar Model Indicator
  ,                                       ! Beam Solar Day Schedule Name
  ,                                       ! Diffuse Solar Day Schedule Name
  0.404,                                  ! ASHRAE Taub {dimensionless}
  2.038;                                  ! ASHRAE Taud {dimensionless}

OS:ComponentData,
  {08cb95ef-19e1-472f-a2d9-031c07c43a07}, ! Handle
  Component Data 1,                       ! Name
  {77e9b712-1a9e-4131-b835-bccdb586363f}, ! UUID
  {21ee2c29-913d-4f5a-804c-6b7ff74d70b7}, ! Version UUID
  1366311701,                             ! Creation Timestamp
  1366311701,                             ! Version Timestamp
  {d790338f-1394-4dab-8ef9-12a1d06fe4e4}; ! Name of Object 1

