
OS:Version,
  {e8785a24-17f5-4802-b70b-ff440736d459}, ! Handle
  0.9.3;                                  ! Version Identifier

OS:SizingPeriod:DesignDay,
  {70544010-b1f8-4fa5-b81c-e7eedd426f3a}, ! Handle
  Cherry Point Mcas Ann Clg .4% Condns WB=>MDB, ! Name
  31.9,                                   ! Maximum Dry-Bulb Temperature {C}
  8.7,                                    ! Daily Dry-Bulb Temperature Range {deltaC}
  27.1,                                   ! Humidity Indicating Conditions at Maximum Dry-Bulb {BasedOnField A3}
  101193,                                 ! Barometric Pressure {Pa}
  3.4,                                    ! Wind Speed {m/s}
  210,                                    ! Wind Direction {deg}
  0,                                      ! Sky Clearness
  0,                                      ! Rain Indicator
  0,                                      ! Snow Indicator
  21,                                     ! Day of Month
  7,                                      ! Month
  SummerDesignDay,                        ! Day Type
  0,                                      ! Daylight Saving Time Indicator
  Wetbulb,                                ! Humidity Indicating Type
  ,                                       ! Humidity Indicating Day Schedule Name
  DefaultMultipliers,                     ! Dry-Bulb Temperature Range Modifier Type
  ,                                       ! Dry-Bulb Temperature Range Modifier Schedule Name
  ASHRAETau,                              ! Solar Model Indicator
  ,                                       ! Beam Solar Day Schedule Name
  ,                                       ! Diffuse Solar Day Schedule Name
  0.581,                                  ! ASHRAE Taub {dimensionless}
  1.748;                                  ! ASHRAE Taud {dimensionless}

OS:ComponentData,
  {7346eab9-6856-41d1-8ce1-7dd7fa0d3946}, ! Handle
  Component Data 1,                       ! Name
  {f27ed9db-3d34-4d0b-ae01-d859ab96cbd6}, ! UUID
  {fdc0ac7c-3bbb-4833-a22d-b26ce43d06a2}, ! Version UUID
  1366308901,                             ! Creation Timestamp
  1366308901,                             ! Version Timestamp
  {70544010-b1f8-4fa5-b81c-e7eedd426f3a}; ! Name of Object 1

