
OS:Version,
  {f5be08f2-1873-4443-801b-981ff6e239ab}, ! Handle
  0.9.3;                                  ! Version Identifier

OS:SizingPeriod:DesignDay,
  {fab9884a-ee3d-4390-ab3c-c897ab3dee10}, ! Handle
  Boone Muni Ann Clg 2% Condns DP=>MDB,   ! Name
  27.9,                                   ! Maximum Dry-Bulb Temperature {C}
  10.2,                                   ! Daily Dry-Bulb Temperature Range {deltaC}
  23.7,                                   ! Humidity Indicating Conditions at Maximum Dry-Bulb {BasedOnField A3}
  97144,                                  ! Barometric Pressure {Pa}
  4.5,                                    ! Wind Speed {m/s}
  190,                                    ! Wind Direction {deg}
  0,                                      ! Sky Clearness
  0,                                      ! Rain Indicator
  0,                                      ! Snow Indicator
  21,                                     ! Day of Month
  7,                                      ! Month
  SummerDesignDay,                        ! Day Type
  0,                                      ! Daylight Saving Time Indicator
  Dewpoint,                               ! Humidity Indicating Type
  ,                                       ! Humidity Indicating Day Schedule Name
  DefaultMultipliers,                     ! Dry-Bulb Temperature Range Modifier Type
  ,                                       ! Dry-Bulb Temperature Range Modifier Schedule Name
  ASHRAETau,                              ! Solar Model Indicator
  ,                                       ! Beam Solar Day Schedule Name
  ,                                       ! Diffuse Solar Day Schedule Name
  0.415,                                  ! ASHRAE Taub {dimensionless}
  2.199;                                  ! ASHRAE Taud {dimensionless}

OS:ComponentData,
  {57be855e-72c5-4071-9e65-72e704981fd6}, ! Handle
  Component Data 1,                       ! Name
  {acd524dd-28a3-4baa-a8b1-35c20890c9e0}, ! UUID
  {b1d4a874-c0fc-456a-97d1-2cc47e89cbc3}, ! Version UUID
  1366307137,                             ! Creation Timestamp
  1366307137,                             ! Version Timestamp
  {fab9884a-ee3d-4390-ab3c-c897ab3dee10}; ! Name of Object 1

