
OS:Version,
  {c943eb34-2692-41f3-9c9d-1d8c198bba55}, ! Handle
  0.9.3;                                  ! Version Identifier

OS:SizingPeriod:DesignDay,
  {ffd9009f-3051-4307-b9ce-03fc75ab2ea1}, ! Handle
  Hallock Ann Clg 1% Condns Enth=>MDB,    ! Name
  26.8,                                   ! Maximum Dry-Bulb Temperature {C}
  12.5,                                   ! Daily Dry-Bulb Temperature Range {deltaC}
  69300,                                  ! Humidity Indicating Conditions at Maximum Dry-Bulb {BasedOnField A3}
  98358,                                  ! Barometric Pressure {Pa}
  5.9,                                    ! Wind Speed {m/s}
  160,                                    ! Wind Direction {deg}
  0,                                      ! Sky Clearness
  0,                                      ! Rain Indicator
  0,                                      ! Snow Indicator
  21,                                     ! Day of Month
  7,                                      ! Month
  SummerDesignDay,                        ! Day Type
  0,                                      ! Daylight Saving Time Indicator
  Enthalpy,                               ! Humidity Indicating Type
  ,                                       ! Humidity Indicating Day Schedule Name
  DefaultMultipliers,                     ! Dry-Bulb Temperature Range Modifier Type
  ,                                       ! Dry-Bulb Temperature Range Modifier Schedule Name
  ASHRAETau,                              ! Solar Model Indicator
  ,                                       ! Beam Solar Day Schedule Name
  ,                                       ! Diffuse Solar Day Schedule Name
  0.405,                                  ! ASHRAE Taub {dimensionless}
  2.208;                                  ! ASHRAE Taud {dimensionless}

OS:ComponentData,
  {ee7c3982-29bd-4264-8b8e-59e62e2c8f5e}, ! Handle
  Component Data 1,                       ! Name
  {ad37535a-a39d-4aa1-9891-dae6ab0cd327}, ! UUID
  {de1af90a-83d6-4eae-85c6-15d0497d2837}, ! Version UUID
  1366308252,                             ! Creation Timestamp
  1366308252,                             ! Version Timestamp
  {ffd9009f-3051-4307-b9ce-03fc75ab2ea1}; ! Name of Object 1

