
OS:Version,
  {f49220ed-81a4-43e7-89bf-adead48868f7}, ! Handle
  0.9.3;                                  ! Version Identifier

OS:SizingPeriod:DesignDay,
  {de5c8693-e989-4782-8d76-2a97a9f35498}, ! Handle
  Joslin Fld Magic Va  Twin Fal Ann Clg 2% Condns DB=>MWB, ! Name
  32,                                     ! Maximum Dry-Bulb Temperature {C}
  15.7,                                   ! Daily Dry-Bulb Temperature Range {deltaC}
  17,                                     ! Humidity Indicating Conditions at Maximum Dry-Bulb {BasedOnField A3}
  87716,                                  ! Barometric Pressure {Pa}
  4,                                      ! Wind Speed {m/s}
  320,                                    ! Wind Direction {deg}
  0,                                      ! Sky Clearness
  0,                                      ! Rain Indicator
  0,                                      ! Snow Indicator
  21,                                     ! Day of Month
  7,                                      ! Month
  SummerDesignDay,                        ! Day Type
  0,                                      ! Daylight Saving Time Indicator
  Wetbulb,                                ! Humidity Indicating Type
  ,                                       ! Humidity Indicating Day Schedule Name
  DefaultMultipliers,                     ! Dry-Bulb Temperature Range Modifier Type
  ,                                       ! Dry-Bulb Temperature Range Modifier Schedule Name
  ASHRAETau,                              ! Solar Model Indicator
  ,                                       ! Beam Solar Day Schedule Name
  ,                                       ! Diffuse Solar Day Schedule Name
  0.42,                                   ! ASHRAE Taub {dimensionless}
  1.979;                                  ! ASHRAE Taud {dimensionless}

OS:ComponentData,
  {e85c3709-067b-47f6-a4eb-dac42d99ca29}, ! Handle
  Component Data 1,                       ! Name
  {fc4ae474-ef1b-454f-aa03-e3b71e519063}, ! UUID
  {f1308e75-d325-4cfc-a938-ab8578d09108}, ! Version UUID
  1366307315,                             ! Creation Timestamp
  1366307315,                             ! Version Timestamp
  {de5c8693-e989-4782-8d76-2a97a9f35498}; ! Name of Object 1

