
OS:Version,
  {f873e756-85af-48e5-b34a-1fbdb73d6fe9}, ! Handle
  0.9.3;                                  ! Version Identifier

OS:SizingPeriod:DesignDay,
  {bd487acd-9165-428c-8e9c-ac8720cb1e20}, ! Handle
  Liberal Muni Ann Clg .4% Condns DB=>MWB, ! Name
  37.6,                                   ! Maximum Dry-Bulb Temperature {C}
  14.7,                                   ! Daily Dry-Bulb Temperature Range {deltaC}
  20.6,                                   ! Humidity Indicating Conditions at Maximum Dry-Bulb {BasedOnField A3}
  90959,                                  ! Barometric Pressure {Pa}
  7.3,                                    ! Wind Speed {m/s}
  190,                                    ! Wind Direction {deg}
  0,                                      ! Sky Clearness
  0,                                      ! Rain Indicator
  0,                                      ! Snow Indicator
  21,                                     ! Day of Month
  7,                                      ! Month
  SummerDesignDay,                        ! Day Type
  0,                                      ! Daylight Saving Time Indicator
  Wetbulb,                                ! Humidity Indicating Type
  ,                                       ! Humidity Indicating Day Schedule Name
  DefaultMultipliers,                     ! Dry-Bulb Temperature Range Modifier Type
  ,                                       ! Dry-Bulb Temperature Range Modifier Schedule Name
  ASHRAETau,                              ! Solar Model Indicator
  ,                                       ! Beam Solar Day Schedule Name
  ,                                       ! Diffuse Solar Day Schedule Name
  0.42,                                   ! ASHRAE Taub {dimensionless}
  2.114;                                  ! ASHRAE Taud {dimensionless}

OS:ComponentData,
  {00897920-fb9d-4b08-9928-28e3a18e28c7}, ! Handle
  Component Data 1,                       ! Name
  {babe25c4-3680-4d49-a019-b8dc2cd64325}, ! UUID
  {94a4fbab-806f-4378-be9d-07b7b049b771}, ! Version UUID
  1366307554,                             ! Creation Timestamp
  1366307554,                             ! Version Timestamp
  {bd487acd-9165-428c-8e9c-ac8720cb1e20}; ! Name of Object 1

