
OS:Version,
  {eb57fbdc-6407-4431-b447-d98e31675614}, ! Handle
  0.9.3;                                  ! Version Identifier

OS:SizingPeriod:DesignDay,
  {31a3c825-cef3-4224-a48d-311a91e8a096}, ! Handle
  Danville Faa Ap Ann Clg 1% Condns WB=>MDB, ! Name
  30.5,                                   ! Maximum Dry-Bulb Temperature {C}
  10.5,                                   ! Daily Dry-Bulb Temperature Range {deltaC}
  24.8,                                   ! Humidity Indicating Conditions at Maximum Dry-Bulb {BasedOnField A3}
  99228,                                  ! Barometric Pressure {Pa}
  3.5,                                    ! Wind Speed {m/s}
  250,                                    ! Wind Direction {deg}
  0,                                      ! Sky Clearness
  0,                                      ! Rain Indicator
  0,                                      ! Snow Indicator
  21,                                     ! Day of Month
  7,                                      ! Month
  SummerDesignDay,                        ! Day Type
  0,                                      ! Daylight Saving Time Indicator
  Wetbulb,                                ! Humidity Indicating Type
  ,                                       ! Humidity Indicating Day Schedule Name
  DefaultMultipliers,                     ! Dry-Bulb Temperature Range Modifier Type
  ,                                       ! Dry-Bulb Temperature Range Modifier Schedule Name
  ASHRAETau,                              ! Solar Model Indicator
  ,                                       ! Beam Solar Day Schedule Name
  ,                                       ! Diffuse Solar Day Schedule Name
  0.559,                                  ! ASHRAE Taub {dimensionless}
  1.76;                                   ! ASHRAE Taud {dimensionless}

OS:ComponentData,
  {44686a3d-9ba6-4671-a36b-d5f074ae0d74}, ! Handle
  Component Data 1,                       ! Name
  {34dad3b8-b5a5-4a08-9a3a-a9f78caba8db}, ! UUID
  {b9fddbbf-eab9-4263-9472-f13f2d9ca13d}, ! Version UUID
  1366311030,                             ! Creation Timestamp
  1366311030,                             ! Version Timestamp
  {31a3c825-cef3-4224-a48d-311a91e8a096}; ! Name of Object 1

