
OS:Version,
  {868f7ad9-70e7-4968-92da-33ec5cacb593}, ! Handle
  0.9.3;                                  ! Version Identifier

OS:SizingPeriod:DesignDay,
  {43bce49e-7104-4743-a220-5608155c788b}, ! Handle
  Dubuque Regional Ap Ann Clg .4% Condns WB=>MDB, ! Name
  30,                                     ! Maximum Dry-Bulb Temperature {C}
  10.2,                                   ! Daily Dry-Bulb Temperature Range {deltaC}
  25.3,                                   ! Humidity Indicating Conditions at Maximum Dry-Bulb {BasedOnField A3}
  97516,                                  ! Barometric Pressure {Pa}
  5.2,                                    ! Wind Speed {m/s}
  190,                                    ! Wind Direction {deg}
  0,                                      ! Sky Clearness
  0,                                      ! Rain Indicator
  0,                                      ! Snow Indicator
  21,                                     ! Day of Month
  7,                                      ! Month
  SummerDesignDay,                        ! Day Type
  0,                                      ! Daylight Saving Time Indicator
  Wetbulb,                                ! Humidity Indicating Type
  ,                                       ! Humidity Indicating Day Schedule Name
  DefaultMultipliers,                     ! Dry-Bulb Temperature Range Modifier Type
  ,                                       ! Dry-Bulb Temperature Range Modifier Schedule Name
  ASHRAETau,                              ! Solar Model Indicator
  ,                                       ! Beam Solar Day Schedule Name
  ,                                       ! Diffuse Solar Day Schedule Name
  0.433,                                  ! ASHRAE Taub {dimensionless}
  2.117;                                  ! ASHRAE Taud {dimensionless}

OS:ComponentData,
  {7be359cf-d30b-4ac8-9122-49c191b859b2}, ! Handle
  Component Data 1,                       ! Name
  {ca7810b7-b9bf-48e6-b7f9-a9158736ddf8}, ! UUID
  {931572f2-f938-4255-8cf4-a3856f7cbbc2}, ! Version UUID
  1366307184,                             ! Creation Timestamp
  1366307184,                             ! Version Timestamp
  {43bce49e-7104-4743-a220-5608155c788b}; ! Name of Object 1

