
OS:Version,
  {00f9a9a2-4023-4183-bab6-4ab6b5c495c5}, ! Handle
  0.9.3;                                  ! Version Identifier

OS:SizingPeriod:DesignDay,
  {6d61569a-0168-411a-ada2-37311c6905ab}, ! Handle
  ATLANTIC_CITY Ann Clg .4% Condns DB=>MWB, ! Name
  33.5,                                   ! Maximum Dry-Bulb Temperature {C}
  10.2,                                   ! Daily Dry-Bulb Temperature Range {deltaC}
  23.9,                                   ! Humidity Indicating Conditions at Maximum Dry-Bulb {BasedOnField A3}
  101085,                                 ! Barometric Pressure {Pa}
  5,                                      ! Wind Speed {m/s}
  230,                                    ! Wind Direction {deg}
  0,                                      ! Sky Clearness
  0,                                      ! Rain Indicator
  0,                                      ! Snow Indicator
  21,                                     ! Day of Month
  7,                                      ! Month
  SummerDesignDay,                        ! Day Type
  0,                                      ! Daylight Saving Time Indicator
  Wetbulb,                                ! Humidity Indicating Type
  ,                                       ! Humidity Indicating Day Schedule Name
  DefaultMultipliers,                     ! Dry-Bulb Temperature Range Modifier Type
  ,                                       ! Dry-Bulb Temperature Range Modifier Schedule Name
  ASHRAETau,                              ! Solar Model Indicator
  ,                                       ! Beam Solar Day Schedule Name
  ,                                       ! Diffuse Solar Day Schedule Name
  0.557,                                  ! ASHRAE Taub {dimensionless}
  1.774;                                  ! ASHRAE Taud {dimensionless}

OS:ComponentData,
  {2d363cb2-f720-42e0-8e71-0f6fa5e7f0d5}, ! Handle
  Component Data 1,                       ! Name
  {7bedef6b-d1a6-41ad-97a6-ed0ae9775be4}, ! UUID
  {2412f3c1-fc5e-4491-98fc-af9e2e2726d1}, ! Version UUID
  1366309282,                             ! Creation Timestamp
  1366309282,                             ! Version Timestamp
  {6d61569a-0168-411a-ada2-37311c6905ab}; ! Name of Object 1

