
OS:Version,
  {6bd87e45-5bc9-49a1-945f-011a06789dd7}, ! Handle
  0.9.3;                                  ! Version Identifier

OS:SizingPeriod:DesignDay,
  {dbba2143-4f6f-458a-ad20-d7007fe15c85}, ! Handle
  Bridgeport Sikorsky Memorial Ann Clg .4% Condns WB=>MDB, ! Name
  28.3,                                   ! Maximum Dry-Bulb Temperature {C}
  7.6,                                    ! Daily Dry-Bulb Temperature Range {deltaC}
  24.4,                                   ! Humidity Indicating Conditions at Maximum Dry-Bulb {BasedOnField A3}
  101289,                                 ! Barometric Pressure {Pa}
  4.8,                                    ! Wind Speed {m/s}
  240,                                    ! Wind Direction {deg}
  0,                                      ! Sky Clearness
  0,                                      ! Rain Indicator
  0,                                      ! Snow Indicator
  21,                                     ! Day of Month
  7,                                      ! Month
  SummerDesignDay,                        ! Day Type
  0,                                      ! Daylight Saving Time Indicator
  Wetbulb,                                ! Humidity Indicating Type
  ,                                       ! Humidity Indicating Day Schedule Name
  DefaultMultipliers,                     ! Dry-Bulb Temperature Range Modifier Type
  ,                                       ! Dry-Bulb Temperature Range Modifier Schedule Name
  ASHRAETau,                              ! Solar Model Indicator
  ,                                       ! Beam Solar Day Schedule Name
  ,                                       ! Diffuse Solar Day Schedule Name
  0.516,                                  ! ASHRAE Taub {dimensionless}
  1.863;                                  ! ASHRAE Taud {dimensionless}

OS:ComponentData,
  {ba4001fb-ea9c-4f75-90f7-7bf50e0fbf4f}, ! Handle
  Component Data 1,                       ! Name
  {06049543-3419-4b31-80f1-af1421325f57}, ! UUID
  {5079cb2a-6c39-488b-96f4-2e191e9057ac}, ! Version UUID
  1366306746,                             ! Creation Timestamp
  1366306746,                             ! Version Timestamp
  {dbba2143-4f6f-458a-ad20-d7007fe15c85}; ! Name of Object 1

