
OS:Version,
  {c9698988-cb60-4d7c-a380-810129180d3f}, ! Handle
  0.9.3;                                  ! Version Identifier

OS:SizingPeriod:DesignDay,
  {04771a41-d2af-4b51-8ccd-853e27d67ccd}, ! Handle
  Arcata Airport Ann Htg 99% Condns DB,   ! Name
  0.6,                                    ! Maximum Dry-Bulb Temperature {C}
  0,                                      ! Daily Dry-Bulb Temperature Range {deltaC}
  0.6,                                    ! Humidity Indicating Conditions at Maximum Dry-Bulb {BasedOnField A3}
  100582,                                 ! Barometric Pressure {Pa}
  2,                                      ! Wind Speed {m/s}
  90,                                     ! Wind Direction {deg}
  0,                                      ! Sky Clearness
  0,                                      ! Rain Indicator
  0,                                      ! Snow Indicator
  21,                                     ! Day of Month
  12,                                     ! Month
  WinterDesignDay,                        ! Day Type
  0,                                      ! Daylight Saving Time Indicator
  Wetbulb,                                ! Humidity Indicating Type
  ,                                       ! Humidity Indicating Day Schedule Name
  DefaultMultipliers,                     ! Dry-Bulb Temperature Range Modifier Type
  ,                                       ! Dry-Bulb Temperature Range Modifier Schedule Name
  ASHRAEClearSky;                         ! Solar Model Indicator

OS:ComponentData,
  {20f9c35f-a905-4449-9905-067935689b5c}, ! Handle
  Component Data 1,                       ! Name
  {4410dae1-364b-4093-a1b4-5312fc6a761e}, ! UUID
  {512ff20f-1842-4e1d-97c4-c799d1183713}, ! Version UUID
  1366306352,                             ! Creation Timestamp
  1366306352,                             ! Version Timestamp
  {04771a41-d2af-4b51-8ccd-853e27d67ccd}; ! Name of Object 1

