
OS:Version,
  {2cefa70c-f4de-4f4b-a42e-182377e51c98}, ! Handle
  0.9.3;                                  ! Version Identifier

OS:SizingPeriod:DesignDay,
  {77f87a4a-6abd-4f7c-8dbb-925d23b9b8e6}, ! Handle
  Corvallis Muni Ann Clg 1% Condns DP=>MDB, ! Name
  23.7,                                   ! Maximum Dry-Bulb Temperature {C}
  15.5,                                   ! Daily Dry-Bulb Temperature Range {deltaC}
  14.1,                                   ! Humidity Indicating Conditions at Maximum Dry-Bulb {BasedOnField A3}
  100403,                                 ! Barometric Pressure {Pa}
  4.5,                                    ! Wind Speed {m/s}
  30,                                     ! Wind Direction {deg}
  0,                                      ! Sky Clearness
  0,                                      ! Rain Indicator
  0,                                      ! Snow Indicator
  21,                                     ! Day of Month
  7,                                      ! Month
  SummerDesignDay,                        ! Day Type
  0,                                      ! Daylight Saving Time Indicator
  Dewpoint,                               ! Humidity Indicating Type
  ,                                       ! Humidity Indicating Day Schedule Name
  DefaultMultipliers,                     ! Dry-Bulb Temperature Range Modifier Type
  ,                                       ! Dry-Bulb Temperature Range Modifier Schedule Name
  ASHRAETau,                              ! Solar Model Indicator
  ,                                       ! Beam Solar Day Schedule Name
  ,                                       ! Diffuse Solar Day Schedule Name
  0.357,                                  ! ASHRAE Taub {dimensionless}
  2.553;                                  ! ASHRAE Taud {dimensionless}

OS:ComponentData,
  {2106818d-7b12-4fab-b3d0-cbd9936a51fe}, ! Handle
  Component Data 1,                       ! Name
  {4b56ff63-eee2-41cd-a91e-c8e0cb5547d2}, ! UUID
  {1fd5413f-c5b3-42da-9c34-e0319b77f8ef}, ! Version UUID
  1366310003,                             ! Creation Timestamp
  1366310003,                             ! Version Timestamp
  {77f87a4a-6abd-4f7c-8dbb-925d23b9b8e6}; ! Name of Object 1

