
OS:Version,
  {e315f9cf-cfff-447f-943e-40a7e12ef6b0}, ! Handle
  0.9.3;                                  ! Version Identifier

OS:SizingPeriod:DesignDay,
  {1e531e54-92cb-42ff-9ac9-5cf240fec478}, ! Handle
  Cairns Field Fort Rucker Ann Clg .4% Condns DP=>MDB, ! Name
  28.7,                                   ! Maximum Dry-Bulb Temperature {C}
  10.2,                                   ! Daily Dry-Bulb Temperature Range {deltaC}
  25.4,                                   ! Humidity Indicating Conditions at Maximum Dry-Bulb {BasedOnField A3}
  100237,                                 ! Barometric Pressure {Pa}
  2.5,                                    ! Wind Speed {m/s}
  300,                                    ! Wind Direction {deg}
  0,                                      ! Sky Clearness
  0,                                      ! Rain Indicator
  0,                                      ! Snow Indicator
  21,                                     ! Day of Month
  7,                                      ! Month
  SummerDesignDay,                        ! Day Type
  0,                                      ! Daylight Saving Time Indicator
  Dewpoint,                               ! Humidity Indicating Type
  ,                                       ! Humidity Indicating Day Schedule Name
  DefaultMultipliers,                     ! Dry-Bulb Temperature Range Modifier Type
  ,                                       ! Dry-Bulb Temperature Range Modifier Schedule Name
  ASHRAETau,                              ! Solar Model Indicator
  ,                                       ! Beam Solar Day Schedule Name
  ,                                       ! Diffuse Solar Day Schedule Name
  0.546,                                  ! ASHRAE Taub {dimensionless}
  1.83;                                   ! ASHRAE Taud {dimensionless}

OS:ComponentData,
  {945ad5e7-4e8b-4e19-abb6-5ecd689a3854}, ! Handle
  Component Data 1,                       ! Name
  {03f62ea3-70e9-4439-8bfc-7fb9a3dd2f78}, ! UUID
  {67dc4643-6a1d-4631-aefe-647e816d436b}, ! Version UUID
  1366305657,                             ! Creation Timestamp
  1366305657,                             ! Version Timestamp
  {1e531e54-92cb-42ff-9ac9-5cf240fec478}; ! Name of Object 1

