
OS:Version,
  {f8924a6c-92b9-43cf-87a5-9f29f72d7584}, ! Handle
  0.9.3;                                  ! Version Identifier

OS:SizingPeriod:DesignDay,
  {2888f95c-ecfc-4fc0-a19a-cc9f3487f362}, ! Handle
  Akron Akron Canton Reg Ap Ann Hum_n 99.6% Condns DP=>MCDB, ! Name
  -15.9,                                  ! Maximum Dry-Bulb Temperature {C}
  0,                                      ! Daily Dry-Bulb Temperature Range {deltaC}
  -20.9,                                  ! Humidity Indicating Conditions at Maximum Dry-Bulb {BasedOnField A3}
  96982,                                  ! Barometric Pressure {Pa}
  4.6,                                    ! Wind Speed {m/s}
  240,                                    ! Wind Direction {deg}
  0,                                      ! Sky Clearness
  0,                                      ! Rain Indicator
  0,                                      ! Snow Indicator
  21,                                     ! Day of Month
  1,                                      ! Month
  WinterDesignDay,                        ! Day Type
  0,                                      ! Daylight Saving Time Indicator
  Dewpoint,                               ! Humidity Indicating Type
  ,                                       ! Humidity Indicating Day Schedule Name
  DefaultMultipliers,                     ! Dry-Bulb Temperature Range Modifier Type
  ,                                       ! Dry-Bulb Temperature Range Modifier Schedule Name
  ASHRAEClearSky;                         ! Solar Model Indicator

OS:ComponentData,
  {a97ce12f-c99e-4a70-a24f-a7a3c1ef21c0}, ! Handle
  Component Data 1,                       ! Name
  {e39e6961-556a-4a40-90c3-0cf7c7451cc1}, ! UUID
  {ca99a6f2-5cf8-4c64-89af-07710518a848}, ! Version UUID
  1366309770,                             ! Creation Timestamp
  1366309770,                             ! Version Timestamp
  {2888f95c-ecfc-4fc0-a19a-cc9f3487f362}; ! Name of Object 1

