
OS:Version,
  {3a1d48da-5853-4ab8-b517-b48efbcd1efc}, ! Handle
  0.9.3;                                  ! Version Identifier

OS:SizingPeriod:DesignDay,
  {0383d60a-f5a8-4fe3-84dc-f352da11e595}, ! Handle
  Beatrice Municipal Ann Clg 1% Condns WB=>MDB, ! Name
  31.6,                                   ! Maximum Dry-Bulb Temperature {C}
  11.3,                                   ! Daily Dry-Bulb Temperature Range {deltaC}
  24.6,                                   ! Humidity Indicating Conditions at Maximum Dry-Bulb {BasedOnField A3}
  96576,                                  ! Barometric Pressure {Pa}
  5.9,                                    ! Wind Speed {m/s}
  190,                                    ! Wind Direction {deg}
  0,                                      ! Sky Clearness
  0,                                      ! Rain Indicator
  0,                                      ! Snow Indicator
  21,                                     ! Day of Month
  7,                                      ! Month
  SummerDesignDay,                        ! Day Type
  0,                                      ! Daylight Saving Time Indicator
  Wetbulb,                                ! Humidity Indicating Type
  ,                                       ! Humidity Indicating Day Schedule Name
  DefaultMultipliers,                     ! Dry-Bulb Temperature Range Modifier Type
  ,                                       ! Dry-Bulb Temperature Range Modifier Schedule Name
  ASHRAETau,                              ! Solar Model Indicator
  ,                                       ! Beam Solar Day Schedule Name
  ,                                       ! Diffuse Solar Day Schedule Name
  0.411,                                  ! ASHRAE Taub {dimensionless}
  2.232;                                  ! ASHRAE Taud {dimensionless}

OS:ComponentData,
  {b5636a5b-e1cb-4e25-9c57-72b51470f092}, ! Handle
  Component Data 1,                       ! Name
  {7475898e-23cb-4a3a-90bf-aa29b5a66bc1}, ! UUID
  {47a31727-710d-4cce-ba15-cffe1930f3ce}, ! Version UUID
  1366309086,                             ! Creation Timestamp
  1366309086,                             ! Version Timestamp
  {0383d60a-f5a8-4fe3-84dc-f352da11e595}; ! Name of Object 1

