
OS:Version,
  {b488f8b3-3558-4176-ac9b-49f238d02b46}, ! Handle
  0.9.3;                                  ! Version Identifier

OS:SizingPeriod:DesignDay,
  {716a5d45-cc2a-4b6b-98be-6321771dcf56}, ! Handle
  Ainsworth Municipal Ann Clg 1% Condns DB=>MWB, ! Name
  32.9,                                   ! Maximum Dry-Bulb Temperature {C}
  13.2,                                   ! Daily Dry-Bulb Temperature Range {deltaC}
  20.6,                                   ! Humidity Indicating Conditions at Maximum Dry-Bulb {BasedOnField A3}
  92199,                                  ! Barometric Pressure {Pa}
  6.3,                                    ! Wind Speed {m/s}
  200,                                    ! Wind Direction {deg}
  0,                                      ! Sky Clearness
  0,                                      ! Rain Indicator
  0,                                      ! Snow Indicator
  21,                                     ! Day of Month
  7,                                      ! Month
  SummerDesignDay,                        ! Day Type
  0,                                      ! Daylight Saving Time Indicator
  Wetbulb,                                ! Humidity Indicating Type
  ,                                       ! Humidity Indicating Day Schedule Name
  DefaultMultipliers,                     ! Dry-Bulb Temperature Range Modifier Type
  ,                                       ! Dry-Bulb Temperature Range Modifier Schedule Name
  ASHRAETau,                              ! Solar Model Indicator
  ,                                       ! Beam Solar Day Schedule Name
  ,                                       ! Diffuse Solar Day Schedule Name
  0.406,                                  ! ASHRAE Taub {dimensionless}
  2.174;                                  ! ASHRAE Taud {dimensionless}

OS:ComponentData,
  {0883f991-13a1-466d-be2b-d6301a52dd18}, ! Handle
  Component Data 1,                       ! Name
  {67240298-88ac-41a0-8be6-e16c822b0128}, ! UUID
  {8696f054-8efd-4061-bff1-94238370a399}, ! Version UUID
  1366309077,                             ! Creation Timestamp
  1366309077,                             ! Version Timestamp
  {716a5d45-cc2a-4b6b-98be-6321771dcf56}; ! Name of Object 1

