
OS:Version,
  {7e21f6e8-59aa-448e-8f5e-c15b08592da6}, ! Handle
  0.9.3;                                  ! Version Identifier

OS:SizingPeriod:DesignDay,
  {c196ffb9-51f4-4390-b254-abf0e506c8d7}, ! Handle
  CAPE_HATTERAS Ann Clg 2% Condns WB=>MDB, ! Name
  27.8,                                   ! Maximum Dry-Bulb Temperature {C}
  4.4,                                    ! Daily Dry-Bulb Temperature Range {deltaC}
  25.9,                                   ! Humidity Indicating Conditions at Maximum Dry-Bulb {BasedOnField A3}
  101301,                                 ! Barometric Pressure {Pa}
  4.4,                                    ! Wind Speed {m/s}
  0,                                      ! Wind Direction {deg}
  0,                                      ! Sky Clearness
  0,                                      ! Rain Indicator
  0,                                      ! Snow Indicator
  21,                                     ! Day of Month
  7,                                      ! Month
  SummerDesignDay,                        ! Day Type
  0,                                      ! Daylight Saving Time Indicator
  Wetbulb,                                ! Humidity Indicating Type
  ,                                       ! Humidity Indicating Day Schedule Name
  DefaultMultipliers,                     ! Dry-Bulb Temperature Range Modifier Type
  ,                                       ! Dry-Bulb Temperature Range Modifier Schedule Name
  ASHRAETau,                              ! Solar Model Indicator
  ,                                       ! Beam Solar Day Schedule Name
  ,                                       ! Diffuse Solar Day Schedule Name
  0.57,                                   ! ASHRAE Taub {dimensionless}
  1.801;                                  ! ASHRAE Taud {dimensionless}

OS:ComponentData,
  {e88e91f3-820a-454c-8b19-e1ca8e373579}, ! Handle
  Component Data 1,                       ! Name
  {d55755d1-729b-4cd0-9710-55ae90dafa18}, ! UUID
  {b6b2e34e-4c0f-4f3d-beb2-56129008cc2f}, ! Version UUID
  1366308877,                             ! Creation Timestamp
  1366308877,                             ! Version Timestamp
  {c196ffb9-51f4-4390-b254-abf0e506c8d7}; ! Name of Object 1

