
OS:Version,
  {0d9c7ada-cf2c-4403-824b-2d1279a81386}, ! Handle
  0.9.3;                                  ! Version Identifier

OS:SizingPeriod:DesignDay,
  {4ae76746-9784-4010-8f7e-2de9942f3f3a}, ! Handle
  Lompoc  Awos Ann Htg Wind 99.6% Condns WS=>MCDB, ! Name
  14.1,                                   ! Maximum Dry-Bulb Temperature {C}
  0,                                      ! Daily Dry-Bulb Temperature Range {deltaC}
  14.1,                                   ! Humidity Indicating Conditions at Maximum Dry-Bulb {BasedOnField A3}
  101001,                                 ! Barometric Pressure {Pa}
  9.6,                                    ! Wind Speed {m/s}
  80,                                     ! Wind Direction {deg}
  0,                                      ! Sky Clearness
  0,                                      ! Rain Indicator
  0,                                      ! Snow Indicator
  21,                                     ! Day of Month
  12,                                     ! Month
  WinterDesignDay,                        ! Day Type
  0,                                      ! Daylight Saving Time Indicator
  Wetbulb,                                ! Humidity Indicating Type
  ,                                       ! Humidity Indicating Day Schedule Name
  DefaultMultipliers,                     ! Dry-Bulb Temperature Range Modifier Type
  ,                                       ! Dry-Bulb Temperature Range Modifier Schedule Name
  ASHRAEClearSky;                         ! Solar Model Indicator

OS:ComponentData,
  {470b0005-ae21-404b-ad5f-30c56fa8cf6a}, ! Handle
  Component Data 1,                       ! Name
  {3a2c1b8c-1d27-4823-a428-c59f5078ccbf}, ! UUID
  {c30180b2-da4d-4cee-8ed1-d42954579633}, ! Version UUID
  1366306466,                             ! Creation Timestamp
  1366306466,                             ! Version Timestamp
  {4ae76746-9784-4010-8f7e-2de9942f3f3a}; ! Name of Object 1

