
OS:Version,
  {7b9d15b9-e116-4c2a-bf59-e36a9bad33ac}, ! Handle
  0.9.3;                                  ! Version Identifier

OS:SizingPeriod:DesignDay,
  {28f952c2-acbe-4405-8390-9ec441af55a7}, ! Handle
  Bismarck Municipal Arpt  Isis Ann Clg 1% Condns DP=>MDB, ! Name
  25.7,                                   ! Maximum Dry-Bulb Temperature {C}
  14.2,                                   ! Daily Dry-Bulb Temperature Range {deltaC}
  20,                                     ! Humidity Indicating Conditions at Maximum Dry-Bulb {BasedOnField A3}
  95438,                                  ! Barometric Pressure {Pa}
  6,                                      ! Wind Speed {m/s}
  160,                                    ! Wind Direction {deg}
  0,                                      ! Sky Clearness
  0,                                      ! Rain Indicator
  0,                                      ! Snow Indicator
  21,                                     ! Day of Month
  7,                                      ! Month
  SummerDesignDay,                        ! Day Type
  0,                                      ! Daylight Saving Time Indicator
  Dewpoint,                               ! Humidity Indicating Type
  ,                                       ! Humidity Indicating Day Schedule Name
  DefaultMultipliers,                     ! Dry-Bulb Temperature Range Modifier Type
  ,                                       ! Dry-Bulb Temperature Range Modifier Schedule Name
  ASHRAETau,                              ! Solar Model Indicator
  ,                                       ! Beam Solar Day Schedule Name
  ,                                       ! Diffuse Solar Day Schedule Name
  0.393,                                  ! ASHRAE Taub {dimensionless}
  2.249;                                  ! ASHRAE Taud {dimensionless}

OS:ComponentData,
  {7675b88f-e9b5-4132-bd8a-fcef3c987912}, ! Handle
  Component Data 1,                       ! Name
  {c3199502-0f2b-490f-b145-0eb5a94a28cd}, ! UUID
  {85f25073-8767-4ac6-9bd8-96eb60ed44f8}, ! Version UUID
  1366309007,                             ! Creation Timestamp
  1366309007,                             ! Version Timestamp
  {28f952c2-acbe-4405-8390-9ec441af55a7}; ! Name of Object 1

