
OS:Version,
  {5ca83434-25dd-46b7-9995-fc6143736d37}, ! Handle
  0.9.3;                                  ! Version Identifier

OS:SizingPeriod:DesignDay,
  {19a32d2c-b5ff-4c35-b14b-31257d436160}, ! Handle
  Lufkin Angelina Co Ann Htg 99% Condns DB, ! Name
  -1.6,                                   ! Maximum Dry-Bulb Temperature {C}
  0,                                      ! Daily Dry-Bulb Temperature Range {deltaC}
  -1.6,                                   ! Humidity Indicating Conditions at Maximum Dry-Bulb {BasedOnField A3}
  100296,                                 ! Barometric Pressure {Pa}
  2.1,                                    ! Wind Speed {m/s}
  340,                                    ! Wind Direction {deg}
  0,                                      ! Sky Clearness
  0,                                      ! Rain Indicator
  0,                                      ! Snow Indicator
  21,                                     ! Day of Month
  1,                                      ! Month
  WinterDesignDay,                        ! Day Type
  0,                                      ! Daylight Saving Time Indicator
  Wetbulb,                                ! Humidity Indicating Type
  ,                                       ! Humidity Indicating Day Schedule Name
  DefaultMultipliers,                     ! Dry-Bulb Temperature Range Modifier Type
  ,                                       ! Dry-Bulb Temperature Range Modifier Schedule Name
  ASHRAEClearSky;                         ! Solar Model Indicator

OS:ComponentData,
  {2e3bc3f3-24c4-4125-a4f4-367420bd59eb}, ! Handle
  Component Data 1,                       ! Name
  {660ce0e2-021e-41de-8a0e-edad7ba917ff}, ! UUID
  {f0e4f4ba-290a-400b-8583-e039f19555be}, ! Version UUID
  1366310806,                             ! Creation Timestamp
  1366310806,                             ! Version Timestamp
  {19a32d2c-b5ff-4c35-b14b-31257d436160}; ! Name of Object 1

