
OS:Version,
  {2ca55735-0141-40b6-92ee-e2747cd96dfc}, ! Handle
  0.9.3;                                  ! Version Identifier

OS:SizingPeriod:DesignDay,
  {57a840d6-504c-4174-a21b-55204090ebb6}, ! Handle
  Hancock Houghton Co Ap Ann Htg Wind 99.6% Condns WS=>MCDB, ! Name
  -7.4,                                   ! Maximum Dry-Bulb Temperature {C}
  0,                                      ! Daily Dry-Bulb Temperature Range {deltaC}
  -7.4,                                   ! Humidity Indicating Conditions at Maximum Dry-Bulb {BasedOnField A3}
  97458,                                  ! Barometric Pressure {Pa}
  13.7,                                   ! Wind Speed {m/s}
  310,                                    ! Wind Direction {deg}
  0,                                      ! Sky Clearness
  0,                                      ! Rain Indicator
  0,                                      ! Snow Indicator
  21,                                     ! Day of Month
  1,                                      ! Month
  WinterDesignDay,                        ! Day Type
  0,                                      ! Daylight Saving Time Indicator
  Wetbulb,                                ! Humidity Indicating Type
  ,                                       ! Humidity Indicating Day Schedule Name
  DefaultMultipliers,                     ! Dry-Bulb Temperature Range Modifier Type
  ,                                       ! Dry-Bulb Temperature Range Modifier Schedule Name
  ASHRAEClearSky;                         ! Solar Model Indicator

OS:ComponentData,
  {5a5ecbe3-22df-4815-9090-4bf6b06b4599}, ! Handle
  Component Data 1,                       ! Name
  {2fd2a8a9-2a73-44ab-a6ae-839ae3b2c8b1}, ! UUID
  {ca1c7555-8ee5-4bb4-88ee-54aa4b666fb4}, ! Version UUID
  1366308021,                             ! Creation Timestamp
  1366308021,                             ! Version Timestamp
  {57a840d6-504c-4174-a21b-55204090ebb6}; ! Name of Object 1

