
OS:Version,
  {47f4cd77-9901-48ef-ab17-7fdad3b945d0}, ! Handle
  0.9.3;                                  ! Version Identifier

OS:SizingPeriod:DesignDay,
  {21b3062b-d36d-4789-941f-e4c963c8cb68}, ! Handle
  Corpus Christi Intl Arpt  Ut Ann Clg 1% Condns Enth=>MDB, ! Name
  31.4,                                   ! Maximum Dry-Bulb Temperature {C}
  10.1,                                   ! Daily Dry-Bulb Temperature Range {deltaC}
  83800,                                  ! Humidity Indicating Conditions at Maximum Dry-Bulb {BasedOnField A3}
  101253,                                 ! Barometric Pressure {Pa}
  6.6,                                    ! Wind Speed {m/s}
  140,                                    ! Wind Direction {deg}
  0,                                      ! Sky Clearness
  0,                                      ! Rain Indicator
  0,                                      ! Snow Indicator
  21,                                     ! Day of Month
  8,                                      ! Month
  SummerDesignDay,                        ! Day Type
  0,                                      ! Daylight Saving Time Indicator
  Enthalpy,                               ! Humidity Indicating Type
  ,                                       ! Humidity Indicating Day Schedule Name
  DefaultMultipliers,                     ! Dry-Bulb Temperature Range Modifier Type
  ,                                       ! Dry-Bulb Temperature Range Modifier Schedule Name
  ASHRAETau,                              ! Solar Model Indicator
  ,                                       ! Beam Solar Day Schedule Name
  ,                                       ! Diffuse Solar Day Schedule Name
  0.463,                                  ! ASHRAE Taub {dimensionless}
  2.116;                                  ! ASHRAE Taud {dimensionless}

OS:ComponentData,
  {6612b752-290e-40c4-82e8-bf1dd5f38a71}, ! Handle
  Component Data 1,                       ! Name
  {17d9f265-5743-434f-a559-03ed524ec5e0}, ! UUID
  {d42772d9-be3b-4f64-99d6-837cb22c6f55}, ! Version UUID
  1366310631,                             ! Creation Timestamp
  1366310631,                             ! Version Timestamp
  {21b3062b-d36d-4789-941f-e4c963c8cb68}; ! Name of Object 1

