
OS:Version,
  {feae0587-7ebd-4595-8487-8e8aef9b1260}, ! Handle
  0.9.3;                                  ! Version Identifier

OS:SizingPeriod:DesignDay,
  {3361ec5f-4146-4315-b7c5-fdc4f906436a}, ! Handle
  La Junta Municipal Ap Ann Clg 1% Condns WB=>MDB, ! Name
  30.4,                                   ! Maximum Dry-Bulb Temperature {C}
  16.5,                                   ! Daily Dry-Bulb Temperature Range {deltaC}
  19.8,                                   ! Humidity Indicating Conditions at Maximum Dry-Bulb {BasedOnField A3}
  86853,                                  ! Barometric Pressure {Pa}
  4.9,                                    ! Wind Speed {m/s}
  140,                                    ! Wind Direction {deg}
  0,                                      ! Sky Clearness
  0,                                      ! Rain Indicator
  0,                                      ! Snow Indicator
  21,                                     ! Day of Month
  7,                                      ! Month
  SummerDesignDay,                        ! Day Type
  0,                                      ! Daylight Saving Time Indicator
  Wetbulb,                                ! Humidity Indicating Type
  ,                                       ! Humidity Indicating Day Schedule Name
  DefaultMultipliers,                     ! Dry-Bulb Temperature Range Modifier Type
  ,                                       ! Dry-Bulb Temperature Range Modifier Schedule Name
  ASHRAETau,                              ! Solar Model Indicator
  ,                                       ! Beam Solar Day Schedule Name
  ,                                       ! Diffuse Solar Day Schedule Name
  0.435,                                  ! ASHRAE Taub {dimensionless}
  1.974;                                  ! ASHRAE Taud {dimensionless}

OS:ComponentData,
  {b02e4560-2221-4a97-8849-b74b623a9dd4}, ! Handle
  Component Data 1,                       ! Name
  {74c40f32-9142-4eac-83f5-5f6085ad82f7}, ! UUID
  {47c88e98-8b4e-40b6-844d-d54e176f03ed}, ! Version UUID
  1366306714,                             ! Creation Timestamp
  1366306714,                             ! Version Timestamp
  {3361ec5f-4146-4315-b7c5-fdc4f906436a}; ! Name of Object 1

