
OS:Version,
  {5320c0c6-f6a5-4220-b28b-819c16f74407}, ! Handle
  0.9.3;                                  ! Version Identifier

OS:SizingPeriod:DesignDay,
  {386b4dfc-8932-44fc-86f0-622ab019e0f2}, ! Handle
  Altoona Blair Co Arpt Ann Clg .4% Condns WB=>MDB, ! Name
  28.8,                                   ! Maximum Dry-Bulb Temperature {C}
  10.7,                                   ! Daily Dry-Bulb Temperature Range {deltaC}
  23.7,                                   ! Humidity Indicating Conditions at Maximum Dry-Bulb {BasedOnField A3}
  96023,                                  ! Barometric Pressure {Pa}
  3.6,                                    ! Wind Speed {m/s}
  280,                                    ! Wind Direction {deg}
  0,                                      ! Sky Clearness
  0,                                      ! Rain Indicator
  0,                                      ! Snow Indicator
  21,                                     ! Day of Month
  7,                                      ! Month
  SummerDesignDay,                        ! Day Type
  0,                                      ! Daylight Saving Time Indicator
  Wetbulb,                                ! Humidity Indicating Type
  ,                                       ! Humidity Indicating Day Schedule Name
  DefaultMultipliers,                     ! Dry-Bulb Temperature Range Modifier Type
  ,                                       ! Dry-Bulb Temperature Range Modifier Schedule Name
  ASHRAETau,                              ! Solar Model Indicator
  ,                                       ! Beam Solar Day Schedule Name
  ,                                       ! Diffuse Solar Day Schedule Name
  0.482,                                  ! ASHRAE Taub {dimensionless}
  1.913;                                  ! ASHRAE Taud {dimensionless}

OS:ComponentData,
  {aa14393c-5230-4e1e-bd73-99a46fad72e4}, ! Handle
  Component Data 1,                       ! Name
  {1c9c52d7-3d12-43dc-a721-b6ac66dec5f0}, ! UUID
  {c0921723-231c-421b-8c87-49f8a80a323b}, ! Version UUID
  1366310140,                             ! Creation Timestamp
  1366310140,                             ! Version Timestamp
  {386b4dfc-8932-44fc-86f0-622ab019e0f2}; ! Name of Object 1

