
OS:Version,
  {d4c03b94-0c15-4123-a07c-8d6527e56b7a}, ! Handle
  0.9.3;                                  ! Version Identifier

OS:SizingPeriod:DesignDay,
  {af7f5e08-90e9-42d4-a17a-762475c172cb}, ! Handle
  College Station Easterwood Fl Ann Clg .4% Condns Enth=>MDB, ! Name
  32.4,                                   ! Maximum Dry-Bulb Temperature {C}
  11.8,                                   ! Daily Dry-Bulb Temperature Range {deltaC}
  83300,                                  ! Humidity Indicating Conditions at Maximum Dry-Bulb {BasedOnField A3}
  100177,                                 ! Barometric Pressure {Pa}
  3.7,                                    ! Wind Speed {m/s}
  170,                                    ! Wind Direction {deg}
  0,                                      ! Sky Clearness
  0,                                      ! Rain Indicator
  0,                                      ! Snow Indicator
  21,                                     ! Day of Month
  8,                                      ! Month
  SummerDesignDay,                        ! Day Type
  0,                                      ! Daylight Saving Time Indicator
  Enthalpy,                               ! Humidity Indicating Type
  ,                                       ! Humidity Indicating Day Schedule Name
  DefaultMultipliers,                     ! Dry-Bulb Temperature Range Modifier Type
  ,                                       ! Dry-Bulb Temperature Range Modifier Schedule Name
  ASHRAETau,                              ! Solar Model Indicator
  ,                                       ! Beam Solar Day Schedule Name
  ,                                       ! Diffuse Solar Day Schedule Name
  0.479,                                  ! ASHRAE Taub {dimensionless}
  2.029;                                  ! ASHRAE Taud {dimensionless}

OS:ComponentData,
  {91b01f8c-d460-43c7-a88e-206dd59834eb}, ! Handle
  Component Data 1,                       ! Name
  {ef6c4592-dedc-4889-be52-b3a169120aa7}, ! UUID
  {be759921-8bac-498b-ab9d-f3830205c207}, ! Version UUID
  1366310619,                             ! Creation Timestamp
  1366310619,                             ! Version Timestamp
  {af7f5e08-90e9-42d4-a17a-762475c172cb}; ! Name of Object 1

