
OS:Version,
  {68a66053-ded1-4093-a691-792ce19d6ce1}, ! Handle
  0.9.3;                                  ! Version Identifier

OS:SizingPeriod:DesignDay,
  {db36c8fd-9435-43dd-a302-6b46c55ef772}, ! Handle
  Grand Forks International Ap Ann Clg .4% Condns DB=>MWB, ! Name
  32.2,                                   ! Maximum Dry-Bulb Temperature {C}
  12.3,                                   ! Daily Dry-Bulb Temperature Range {deltaC}
  21.7,                                   ! Humidity Indicating Conditions at Maximum Dry-Bulb {BasedOnField A3}
  98287,                                  ! Barometric Pressure {Pa}
  6.1,                                    ! Wind Speed {m/s}
  170,                                    ! Wind Direction {deg}
  0,                                      ! Sky Clearness
  0,                                      ! Rain Indicator
  0,                                      ! Snow Indicator
  21,                                     ! Day of Month
  7,                                      ! Month
  SummerDesignDay,                        ! Day Type
  0,                                      ! Daylight Saving Time Indicator
  Wetbulb,                                ! Humidity Indicating Type
  ,                                       ! Humidity Indicating Day Schedule Name
  DefaultMultipliers,                     ! Dry-Bulb Temperature Range Modifier Type
  ,                                       ! Dry-Bulb Temperature Range Modifier Schedule Name
  ASHRAETau,                              ! Solar Model Indicator
  ,                                       ! Beam Solar Day Schedule Name
  ,                                       ! Diffuse Solar Day Schedule Name
  0.396,                                  ! ASHRAE Taub {dimensionless}
  2.253;                                  ! ASHRAE Taud {dimensionless}

OS:ComponentData,
  {2d777c52-3d8e-4740-9277-6a0c0db20174}, ! Handle
  Component Data 1,                       ! Name
  {51b619c8-ef52-49b8-b3b9-0d20b10d4974}, ! UUID
  {b097fee3-bbf8-431e-89cb-fd0aa845eaa2}, ! Version UUID
  1366309046,                             ! Creation Timestamp
  1366309046,                             ! Version Timestamp
  {db36c8fd-9435-43dd-a302-6b46c55ef772}; ! Name of Object 1

