
OS:Version,
  {73731e8b-8319-4922-9829-c9ce5533bcf0}, ! Handle
  0.9.3;                                  ! Version Identifier

OS:SizingPeriod:DesignDay,
  {a107e792-69f9-4412-a9a0-6809a8ccd164}, ! Handle
  Charleston Yeager Arpt Ann Clg 1% Condns Enth=>MDB, ! Name
  29.2,                                   ! Maximum Dry-Bulb Temperature {C}
  10.7,                                   ! Daily Dry-Bulb Temperature Range {deltaC}
  73800,                                  ! Humidity Indicating Conditions at Maximum Dry-Bulb {BasedOnField A3}
  97656,                                  ! Barometric Pressure {Pa}
  2.9,                                    ! Wind Speed {m/s}
  240,                                    ! Wind Direction {deg}
  0,                                      ! Sky Clearness
  0,                                      ! Rain Indicator
  0,                                      ! Snow Indicator
  21,                                     ! Day of Month
  7,                                      ! Month
  SummerDesignDay,                        ! Day Type
  0,                                      ! Daylight Saving Time Indicator
  Enthalpy,                               ! Humidity Indicating Type
  ,                                       ! Humidity Indicating Day Schedule Name
  DefaultMultipliers,                     ! Dry-Bulb Temperature Range Modifier Type
  ,                                       ! Dry-Bulb Temperature Range Modifier Schedule Name
  ASHRAETau,                              ! Solar Model Indicator
  ,                                       ! Beam Solar Day Schedule Name
  ,                                       ! Diffuse Solar Day Schedule Name
  0.513,                                  ! ASHRAE Taub {dimensionless}
  1.859;                                  ! ASHRAE Taud {dimensionless}

OS:ComponentData,
  {e75cd94c-7cc3-4d91-bed0-589dc4d94579}, ! Handle
  Component Data 1,                       ! Name
  {b0de7896-9e39-4339-8c7b-f55901796985}, ! UUID
  {9a18f69b-f441-4d64-aa78-c2aef96987ec}, ! Version UUID
  1366311626,                             ! Creation Timestamp
  1366311626,                             ! Version Timestamp
  {a107e792-69f9-4412-a9a0-6809a8ccd164}; ! Name of Object 1

