
OS:Version,
  {36340f4d-5998-439e-b6cf-105d7f73516e}, ! Handle
  0.9.3;                                  ! Version Identifier

OS:SizingPeriod:DesignDay,
  {93941c64-b189-4072-af9f-48f60fd4bd92}, ! Handle
  BATON_ROUGE Ann Clg .4% Condns DB=>MWB, ! Name
  34.6,                                   ! Maximum Dry-Bulb Temperature {C}
  9.4,                                    ! Daily Dry-Bulb Temperature Range {deltaC}
  25.3,                                   ! Humidity Indicating Conditions at Maximum Dry-Bulb {BasedOnField A3}
  101049,                                 ! Barometric Pressure {Pa}
  3.3,                                    ! Wind Speed {m/s}
  260,                                    ! Wind Direction {deg}
  0,                                      ! Sky Clearness
  0,                                      ! Rain Indicator
  0,                                      ! Snow Indicator
  21,                                     ! Day of Month
  7,                                      ! Month
  SummerDesignDay,                        ! Day Type
  0,                                      ! Daylight Saving Time Indicator
  Wetbulb,                                ! Humidity Indicating Type
  ,                                       ! Humidity Indicating Day Schedule Name
  DefaultMultipliers,                     ! Dry-Bulb Temperature Range Modifier Type
  ,                                       ! Dry-Bulb Temperature Range Modifier Schedule Name
  ASHRAETau,                              ! Solar Model Indicator
  ,                                       ! Beam Solar Day Schedule Name
  ,                                       ! Diffuse Solar Day Schedule Name
  0.542,                                  ! ASHRAE Taub {dimensionless}
  1.845;                                  ! ASHRAE Taud {dimensionless}

OS:ComponentData,
  {7bae1b98-99be-405f-919a-4da1b88034e1}, ! Handle
  Component Data 1,                       ! Name
  {4dbdeacc-c813-4293-bce3-d9f198bef2e3}, ! UUID
  {a466a46a-28ac-4f6c-a05b-a535c1628653}, ! Version UUID
  1366307711,                             ! Creation Timestamp
  1366307711,                             ! Version Timestamp
  {93941c64-b189-4072-af9f-48f60fd4bd92}; ! Name of Object 1

