
OS:Version,
  {6f3878c2-0b16-4507-889c-f08f609d97d6}, ! Handle
  0.9.3;                                  ! Version Identifier

OS:SizingPeriod:DesignDay,
  {fdc983c0-782e-4de5-ada8-856b2dee7e3b}, ! Handle
  Lincoln Municipal Arpt Ann Htg Wind 99% Condns WS=>MCDB, ! Name
  -4,                                     ! Maximum Dry-Bulb Temperature {C}
  0,                                      ! Daily Dry-Bulb Temperature Range {deltaC}
  -4,                                     ! Humidity Indicating Conditions at Maximum Dry-Bulb {BasedOnField A3}
  97109,                                  ! Barometric Pressure {Pa}
  12.1,                                   ! Wind Speed {m/s}
  350,                                    ! Wind Direction {deg}
  0,                                      ! Sky Clearness
  0,                                      ! Rain Indicator
  0,                                      ! Snow Indicator
  21,                                     ! Day of Month
  1,                                      ! Month
  WinterDesignDay,                        ! Day Type
  0,                                      ! Daylight Saving Time Indicator
  Wetbulb,                                ! Humidity Indicating Type
  ,                                       ! Humidity Indicating Day Schedule Name
  DefaultMultipliers,                     ! Dry-Bulb Temperature Range Modifier Type
  ,                                       ! Dry-Bulb Temperature Range Modifier Schedule Name
  ASHRAEClearSky;                         ! Solar Model Indicator

