
OS:Version,
  {4d59f19c-8f91-4006-8647-bf65645a13f6}, ! Handle
  0.9.3;                                  ! Version Identifier

OS:SizingPeriod:DesignDay,
  {fece8385-ad82-4bfe-893c-e7e888d3bcc8}, ! Handle
  CAPE_HATTERAS Ann Clg .4% Condns WB=>MDB, ! Name
  28.8,                                   ! Maximum Dry-Bulb Temperature {C}
  4.4,                                    ! Daily Dry-Bulb Temperature Range {deltaC}
  26.9,                                   ! Humidity Indicating Conditions at Maximum Dry-Bulb {BasedOnField A3}
  101301,                                 ! Barometric Pressure {Pa}
  4.4,                                    ! Wind Speed {m/s}
  0,                                      ! Wind Direction {deg}
  0,                                      ! Sky Clearness
  0,                                      ! Rain Indicator
  0,                                      ! Snow Indicator
  21,                                     ! Day of Month
  7,                                      ! Month
  SummerDesignDay,                        ! Day Type
  0,                                      ! Daylight Saving Time Indicator
  Wetbulb,                                ! Humidity Indicating Type
  ,                                       ! Humidity Indicating Day Schedule Name
  DefaultMultipliers,                     ! Dry-Bulb Temperature Range Modifier Type
  ,                                       ! Dry-Bulb Temperature Range Modifier Schedule Name
  ASHRAETau,                              ! Solar Model Indicator
  ,                                       ! Beam Solar Day Schedule Name
  ,                                       ! Diffuse Solar Day Schedule Name
  0.57,                                   ! ASHRAE Taub {dimensionless}
  1.801;                                  ! ASHRAE Taud {dimensionless}

OS:ComponentData,
  {575c2388-0cee-444b-b439-3a4c74bab204}, ! Handle
  Component Data 1,                       ! Name
  {f4233dfe-f9eb-4e8b-a284-cba9cd5d166f}, ! UUID
  {24070a57-07af-4362-b66e-e045bd0602dd}, ! Version UUID
  1366308877,                             ! Creation Timestamp
  1366308877,                             ! Version Timestamp
  {fece8385-ad82-4bfe-893c-e7e888d3bcc8}; ! Name of Object 1

