
OS:Version,
  {3570f825-6cf6-4327-ad25-846c32e72ef9}, ! Handle
  0.9.3;                                  ! Version Identifier

OS:SizingPeriod:DesignDay,
  {5f532de0-28f6-43bc-a94f-a5d83c6852f9}, ! Handle
  HOUGHTON Ann Clg 2% Condns Enth=>MDB,   ! Name
  24.3,                                   ! Maximum Dry-Bulb Temperature {C}
  10.5,                                   ! Daily Dry-Bulb Temperature Range {deltaC}
  59300,                                  ! Humidity Indicating Conditions at Maximum Dry-Bulb {BasedOnField A3}
  97435,                                  ! Barometric Pressure {Pa}
  4.7,                                    ! Wind Speed {m/s}
  270,                                    ! Wind Direction {deg}
  0,                                      ! Sky Clearness
  0,                                      ! Rain Indicator
  0,                                      ! Snow Indicator
  21,                                     ! Day of Month
  7,                                      ! Month
  SummerDesignDay,                        ! Day Type
  0,                                      ! Daylight Saving Time Indicator
  Enthalpy,                               ! Humidity Indicating Type
  ,                                       ! Humidity Indicating Day Schedule Name
  DefaultMultipliers,                     ! Dry-Bulb Temperature Range Modifier Type
  ,                                       ! Dry-Bulb Temperature Range Modifier Schedule Name
  ASHRAETau,                              ! Solar Model Indicator
  ,                                       ! Beam Solar Day Schedule Name
  ,                                       ! Diffuse Solar Day Schedule Name
  0.413,                                  ! ASHRAE Taub {dimensionless}
  2.179;                                  ! ASHRAE Taud {dimensionless}

OS:ComponentData,
  {bc7722a1-27d2-4995-b7a5-bdb0ec7ad66e}, ! Handle
  Component Data 1,                       ! Name
  {0afdc6cf-baaa-4952-960c-d0b78b4c7545}, ! UUID
  {9456f331-4666-4a33-b047-98abe00a0c23}, ! Version UUID
  1366308031,                             ! Creation Timestamp
  1366308031,                             ! Version Timestamp
  {5f532de0-28f6-43bc-a94f-a5d83c6852f9}; ! Name of Object 1

