
OS:Version,
  {534d6512-b457-462d-b08c-8159657a9b40}, ! Handle
  0.9.3;                                  ! Version Identifier

OS:SizingPeriod:DesignDay,
  {103a4adf-d94d-48e9-828d-b4d6a877f937}, ! Handle
  Lafayette Regional Ap Ann Clg .4% Condns WB=>MDB, ! Name
  31.7,                                   ! Maximum Dry-Bulb Temperature {C}
  8.9,                                    ! Daily Dry-Bulb Temperature Range {deltaC}
  27.1,                                   ! Humidity Indicating Conditions at Maximum Dry-Bulb {BasedOnField A3}
  101181,                                 ! Barometric Pressure {Pa}
  3.5,                                    ! Wind Speed {m/s}
  110,                                    ! Wind Direction {deg}
  0,                                      ! Sky Clearness
  0,                                      ! Rain Indicator
  0,                                      ! Snow Indicator
  21,                                     ! Day of Month
  7,                                      ! Month
  SummerDesignDay,                        ! Day Type
  0,                                      ! Daylight Saving Time Indicator
  Wetbulb,                                ! Humidity Indicating Type
  ,                                       ! Humidity Indicating Day Schedule Name
  DefaultMultipliers,                     ! Dry-Bulb Temperature Range Modifier Type
  ,                                       ! Dry-Bulb Temperature Range Modifier Schedule Name
  ASHRAETau,                              ! Solar Model Indicator
  ,                                       ! Beam Solar Day Schedule Name
  ,                                       ! Diffuse Solar Day Schedule Name
  0.532,                                  ! ASHRAE Taub {dimensionless}
  1.875;                                  ! ASHRAE Taud {dimensionless}

OS:ComponentData,
  {ebe72a37-856e-49d7-a03c-22849c944196}, ! Handle
  Component Data 1,                       ! Name
  {75a08bad-6192-4246-b5cf-e9a1e0486d87}, ! UUID
  {5dfd9657-6a76-4339-be46-6d8c71f29ae9}, ! Version UUID
  1366307720,                             ! Creation Timestamp
  1366307720,                             ! Version Timestamp
  {103a4adf-d94d-48e9-828d-b4d6a877f937}; ! Name of Object 1

