
OS:Version,
  {77865c0c-df81-4aa5-bac3-838520154268}, ! Handle
  0.9.3;                                  ! Version Identifier

OS:SizingPeriod:DesignDay,
  {a059dfc4-577a-4a82-8ec3-0f71ae7211ff}, ! Handle
  Hanford Ann Clg .4% Condns WB=>MDB,     ! Name
  36.3,                                   ! Maximum Dry-Bulb Temperature {C}
  15.1,                                   ! Daily Dry-Bulb Temperature Range {deltaC}
  20.1,                                   ! Humidity Indicating Conditions at Maximum Dry-Bulb {BasedOnField A3}
  98675,                                  ! Barometric Pressure {Pa}
  3.3,                                    ! Wind Speed {m/s}
  0,                                      ! Wind Direction {deg}
  0,                                      ! Sky Clearness
  0,                                      ! Rain Indicator
  0,                                      ! Snow Indicator
  21,                                     ! Day of Month
  7,                                      ! Month
  SummerDesignDay,                        ! Day Type
  0,                                      ! Daylight Saving Time Indicator
  Wetbulb,                                ! Humidity Indicating Type
  ,                                       ! Humidity Indicating Day Schedule Name
  DefaultMultipliers,                     ! Dry-Bulb Temperature Range Modifier Type
  ,                                       ! Dry-Bulb Temperature Range Modifier Schedule Name
  ASHRAETau,                              ! Solar Model Indicator
  ,                                       ! Beam Solar Day Schedule Name
  ,                                       ! Diffuse Solar Day Schedule Name
  0.387,                                  ! ASHRAE Taub {dimensionless}
  2.251;                                  ! ASHRAE Taud {dimensionless}

OS:ComponentData,
  {be07a597-ce98-4621-96c4-3ee41583ff1e}, ! Handle
  Component Data 1,                       ! Name
  {45c2f58e-7a10-4a58-a6f9-fd804ceb9913}, ! UUID
  {a16c5775-4c5b-4d2d-855e-1b751d350f84}, ! Version UUID
  1366311287,                             ! Creation Timestamp
  1366311287,                             ! Version Timestamp
  {a059dfc4-577a-4a82-8ec3-0f71ae7211ff}; ! Name of Object 1

