
OS:Version,
  {26543643-86ae-4a1f-8dd7-70180fb88fbe}, ! Handle
  0.9.3;                                  ! Version Identifier

OS:SizingPeriod:DesignDay,
  {e8c0ee74-1f56-4624-9904-685d67bf5ad6}, ! Handle
  Amarillo Ann Htg 99.6% Condns DB,       ! Name
  -13.8,                                  ! Maximum Dry-Bulb Temperature {C}
  0,                                      ! Daily Dry-Bulb Temperature Range {deltaC}
  -13.8,                                  ! Humidity Indicating Conditions at Maximum Dry-Bulb {BasedOnField A3}
  88801,                                  ! Barometric Pressure {Pa}
  5.1,                                    ! Wind Speed {m/s}
  20,                                     ! Wind Direction {deg}
  0,                                      ! Sky Clearness
  0,                                      ! Rain Indicator
  0,                                      ! Snow Indicator
  21,                                     ! Day of Month
  12,                                     ! Month
  WinterDesignDay,                        ! Day Type
  0,                                      ! Daylight Saving Time Indicator
  Wetbulb,                                ! Humidity Indicating Type
  ,                                       ! Humidity Indicating Day Schedule Name
  DefaultMultipliers,                     ! Dry-Bulb Temperature Range Modifier Type
  ,                                       ! Dry-Bulb Temperature Range Modifier Schedule Name
  ASHRAEClearSky;                         ! Solar Model Indicator

OS:ComponentData,
  {eabe5c5a-eb52-470c-a002-0404c46db4f5}, ! Handle
  Component Data 1,                       ! Name
  {0b3fbbc1-a28a-4aaa-8192-cda32591a2a5}, ! UUID
  {f2ae501f-24cc-44c4-8f8f-0b104a1a9e1d}, ! Version UUID
  1366310569,                             ! Creation Timestamp
  1366310569,                             ! Version Timestamp
  {e8c0ee74-1f56-4624-9904-685d67bf5ad6}; ! Name of Object 1

