
OS:Version,
  {f40e4e28-2176-4f4e-9004-1ece0c9779ff}, ! Handle
  0.9.3;                                  ! Version Identifier

OS:SizingPeriod:DesignDay,
  {9e7875d3-def1-42e2-a7e8-bda28a946e7c}, ! Handle
  KANSAS_CITY Ann Htg Wind 99% Condns WS=>MCDB, ! Name
  2.9,                                    ! Maximum Dry-Bulb Temperature {C}
  0,                                      ! Daily Dry-Bulb Temperature Range {deltaC}
  2.9,                                    ! Humidity Indicating Conditions at Maximum Dry-Bulb {BasedOnField A3}
  97598,                                  ! Barometric Pressure {Pa}
  11.8,                                   ! Wind Speed {m/s}
  340,                                    ! Wind Direction {deg}
  0,                                      ! Sky Clearness
  0,                                      ! Rain Indicator
  0,                                      ! Snow Indicator
  21,                                     ! Day of Month
  1,                                      ! Month
  WinterDesignDay,                        ! Day Type
  0,                                      ! Daylight Saving Time Indicator
  Wetbulb,                                ! Humidity Indicating Type
  ,                                       ! Humidity Indicating Day Schedule Name
  DefaultMultipliers,                     ! Dry-Bulb Temperature Range Modifier Type
  ,                                       ! Dry-Bulb Temperature Range Modifier Schedule Name
  ASHRAEClearSky;                         ! Solar Model Indicator

OS:ComponentData,
  {412a6b70-c69c-4f6d-98d3-abfad22b87d8}, ! Handle
  Component Data 1,                       ! Name
  {47d6c018-ed43-4d23-92ec-ee1c815ba9e3}, ! UUID
  {a4fb6ec1-6bbc-4b2a-ba01-069340b15c41}, ! Version UUID
  1366308519,                             ! Creation Timestamp
  1366308519,                             ! Version Timestamp
  {9e7875d3-def1-42e2-a7e8-bda28a946e7c}; ! Name of Object 1

