
OS:Version,
  {f26141fe-229d-4da4-899f-b521aca73f4f}, ! Handle
  0.9.3;                                  ! Version Identifier

OS:SizingPeriod:DesignDay,
  {bf34760e-5c83-4163-8c03-e2b36e805fa2}, ! Handle
  DODGE_CITY Ann Hum_n 99% Condns DP=>MCDB, ! Name
  -10.2,                                  ! Maximum Dry-Bulb Temperature {C}
  0,                                      ! Daily Dry-Bulb Temperature Range {deltaC}
  -18,                                    ! Humidity Indicating Conditions at Maximum Dry-Bulb {BasedOnField A3}
  92221,                                  ! Barometric Pressure {Pa}
  5.6,                                    ! Wind Speed {m/s}
  0,                                      ! Wind Direction {deg}
  0,                                      ! Sky Clearness
  0,                                      ! Rain Indicator
  0,                                      ! Snow Indicator
  21,                                     ! Day of Month
  1,                                      ! Month
  WinterDesignDay,                        ! Day Type
  0,                                      ! Daylight Saving Time Indicator
  Dewpoint,                               ! Humidity Indicating Type
  ,                                       ! Humidity Indicating Day Schedule Name
  DefaultMultipliers,                     ! Dry-Bulb Temperature Range Modifier Type
  ,                                       ! Dry-Bulb Temperature Range Modifier Schedule Name
  ASHRAEClearSky;                         ! Solar Model Indicator

OS:ComponentData,
  {529da90e-ca53-45a3-900f-1c3d658db2c7}, ! Handle
  Component Data 1,                       ! Name
  {341c4aac-e4b3-4dbe-b10f-bcdc8f56f424}, ! UUID
  {96c87db8-d8fe-4a68-bda0-050df07fcc89}, ! Version UUID
  1366307504,                             ! Creation Timestamp
  1366307504,                             ! Version Timestamp
  {bf34760e-5c83-4163-8c03-e2b36e805fa2}; ! Name of Object 1

