
OS:Version,
  {d5071079-39e0-4d32-a472-dce096e3898c}, ! Handle
  0.9.3;                                  ! Version Identifier

OS:SizingPeriod:DesignDay,
  {bd13bb80-4568-47ca-bf34-09e3271147d3}, ! Handle
  Hondo Municipal Ap Ann Clg 1% Condns Enth=>MDB, ! Name
  31.1,                                   ! Maximum Dry-Bulb Temperature {C}
  12.4,                                   ! Daily Dry-Bulb Temperature Range {deltaC}
  78300,                                  ! Humidity Indicating Conditions at Maximum Dry-Bulb {BasedOnField A3}
  98006,                                  ! Barometric Pressure {Pa}
  4.7,                                    ! Wind Speed {m/s}
  140,                                    ! Wind Direction {deg}
  0,                                      ! Sky Clearness
  0,                                      ! Rain Indicator
  0,                                      ! Snow Indicator
  21,                                     ! Day of Month
  8,                                      ! Month
  SummerDesignDay,                        ! Day Type
  0,                                      ! Daylight Saving Time Indicator
  Enthalpy,                               ! Humidity Indicating Type
  ,                                       ! Humidity Indicating Day Schedule Name
  DefaultMultipliers,                     ! Dry-Bulb Temperature Range Modifier Type
  ,                                       ! Dry-Bulb Temperature Range Modifier Schedule Name
  ASHRAETau,                              ! Solar Model Indicator
  ,                                       ! Beam Solar Day Schedule Name
  ,                                       ! Diffuse Solar Day Schedule Name
  0.437,                                  ! ASHRAE Taub {dimensionless}
  2.197;                                  ! ASHRAE Taud {dimensionless}

OS:ComponentData,
  {322c4966-e109-4f11-a518-5efd3b9aaf5b}, ! Handle
  Component Data 1,                       ! Name
  {2d6532af-f101-4bfe-badb-7a0b6223fe39}, ! UUID
  {aa8ae410-1569-4cc6-96f3-0b574f95d7ef}, ! Version UUID
  1366310737,                             ! Creation Timestamp
  1366310737,                             ! Version Timestamp
  {bd13bb80-4568-47ca-bf34-09e3271147d3}; ! Name of Object 1

