
OS:Version,
  {3ab86623-9e3a-4350-8c3e-9a8adbcf3eb0}, ! Handle
  0.9.3;                                  ! Version Identifier

OS:SizingPeriod:DesignDay,
  {d502aa1d-11d6-41c9-b0cc-465175d38907}, ! Handle
  Detroit Willow Run Ap Ann Clg .4% Condns WB=>MDB, ! Name
  30.6,                                   ! Maximum Dry-Bulb Temperature {C}
  11.2,                                   ! Daily Dry-Bulb Temperature Range {deltaC}
  25.1,                                   ! Humidity Indicating Conditions at Maximum Dry-Bulb {BasedOnField A3}
  98733,                                  ! Barometric Pressure {Pa}
  5.3,                                    ! Wind Speed {m/s}
  230,                                    ! Wind Direction {deg}
  0,                                      ! Sky Clearness
  0,                                      ! Rain Indicator
  0,                                      ! Snow Indicator
  21,                                     ! Day of Month
  7,                                      ! Month
  SummerDesignDay,                        ! Day Type
  0,                                      ! Daylight Saving Time Indicator
  Wetbulb,                                ! Humidity Indicating Type
  ,                                       ! Humidity Indicating Day Schedule Name
  DefaultMultipliers,                     ! Dry-Bulb Temperature Range Modifier Type
  ,                                       ! Dry-Bulb Temperature Range Modifier Schedule Name
  ASHRAETau,                              ! Solar Model Indicator
  ,                                       ! Beam Solar Day Schedule Name
  ,                                       ! Diffuse Solar Day Schedule Name
  0.465,                                  ! ASHRAE Taub {dimensionless}
  1.99;                                   ! ASHRAE Taud {dimensionless}

OS:ComponentData,
  {4aecc934-602f-4fe0-8a0f-64e81e37e734}, ! Handle
  Component Data 1,                       ! Name
  {c9d78fd5-09c5-4d12-8085-1a7a4f5e579c}, ! UUID
  {8d787303-eb73-4b19-b5f1-76a3a3f37190}, ! Version UUID
  1366307984,                             ! Creation Timestamp
  1366307984,                             ! Version Timestamp
  {d502aa1d-11d6-41c9-b0cc-465175d38907}; ! Name of Object 1

