
OS:Version,
  {fce8f8a5-8a6c-4de4-9a65-7d19e902b0f2}, ! Handle
  0.9.3;                                  ! Version Identifier

OS:SizingPeriod:DesignDay,
  {4b488833-00a2-4edb-b9e9-0d6a7e00f6ba}, ! Handle
  International Falls Intl Ap Ann Clg 1% Condns WB=>MDB, ! Name
  26.2,                                   ! Maximum Dry-Bulb Temperature {C}
  12.4,                                   ! Daily Dry-Bulb Temperature Range {deltaC}
  21.5,                                   ! Humidity Indicating Conditions at Maximum Dry-Bulb {BasedOnField A3}
  97086,                                  ! Barometric Pressure {Pa}
  4.7,                                    ! Wind Speed {m/s}
  200,                                    ! Wind Direction {deg}
  0,                                      ! Sky Clearness
  0,                                      ! Rain Indicator
  0,                                      ! Snow Indicator
  21,                                     ! Day of Month
  7,                                      ! Month
  SummerDesignDay,                        ! Day Type
  0,                                      ! Daylight Saving Time Indicator
  Wetbulb,                                ! Humidity Indicating Type
  ,                                       ! Humidity Indicating Day Schedule Name
  DefaultMultipliers,                     ! Dry-Bulb Temperature Range Modifier Type
  ,                                       ! Dry-Bulb Temperature Range Modifier Schedule Name
  ASHRAETau,                              ! Solar Model Indicator
  ,                                       ! Beam Solar Day Schedule Name
  ,                                       ! Diffuse Solar Day Schedule Name
  0.405,                                  ! ASHRAE Taub {dimensionless}
  2.2;                                    ! ASHRAE Taud {dimensionless}

OS:ComponentData,
  {88bfb4ce-6fb6-468b-ae37-391d6559bcbe}, ! Handle
  Component Data 1,                       ! Name
  {6e611374-76c9-4f71-abb5-99a3af8ddb59}, ! UUID
  {3a5680cd-00f8-4562-8068-ae9ffd8b9e6a}, ! Version UUID
  1366308277,                             ! Creation Timestamp
  1366308277,                             ! Version Timestamp
  {4b488833-00a2-4edb-b9e9-0d6a7e00f6ba}; ! Name of Object 1

