
OS:Version,
  {4f939ea2-73b6-43ec-9cfa-7437d39f1c5e}, ! Handle
  0.9.3;                                  ! Version Identifier

OS:SizingPeriod:DesignDay,
  {14159672-8607-4f28-9e94-9d5d60353a0e}, ! Handle
  ALLENTOWN Ann Clg 1% Condns WB=>MDB,    ! Name
  28.8,                                   ! Maximum Dry-Bulb Temperature {C}
  10.7,                                   ! Daily Dry-Bulb Temperature Range {deltaC}
  24,                                     ! Humidity Indicating Conditions at Maximum Dry-Bulb {BasedOnField A3}
  99927,                                  ! Barometric Pressure {Pa}
  4.6,                                    ! Wind Speed {m/s}
  240,                                    ! Wind Direction {deg}
  0,                                      ! Sky Clearness
  0,                                      ! Rain Indicator
  0,                                      ! Snow Indicator
  21,                                     ! Day of Month
  7,                                      ! Month
  SummerDesignDay,                        ! Day Type
  0,                                      ! Daylight Saving Time Indicator
  Wetbulb,                                ! Humidity Indicating Type
  ,                                       ! Humidity Indicating Day Schedule Name
  DefaultMultipliers,                     ! Dry-Bulb Temperature Range Modifier Type
  ,                                       ! Dry-Bulb Temperature Range Modifier Schedule Name
  ASHRAETau,                              ! Solar Model Indicator
  ,                                       ! Beam Solar Day Schedule Name
  ,                                       ! Diffuse Solar Day Schedule Name
  0.504,                                  ! ASHRAE Taub {dimensionless}
  1.885;                                  ! ASHRAE Taud {dimensionless}

OS:ComponentData,
  {09283ef7-8733-4259-9082-a6a1066e1dd0}, ! Handle
  Component Data 1,                       ! Name
  {5878ea89-ddbe-45dc-beb2-69f0cf786fcc}, ! UUID
  {108d6d71-a469-442f-a288-acf2c1f851fb}, ! Version UUID
  1366310136,                             ! Creation Timestamp
  1366310136,                             ! Version Timestamp
  {14159672-8607-4f28-9e94-9d5d60353a0e}; ! Name of Object 1

