
OS:Version,
  {2ec4f1d3-b23a-4539-b232-13a15657a3c0}, ! Handle
  0.9.3;                                  ! Version Identifier

OS:SizingPeriod:DesignDay,
  {a4cdda78-3651-4e9f-9ae4-1a1c27195b5f}, ! Handle
  Greenwood Leflore Arpt Ann Hum_n 99% Condns DP=>MCDB, ! Name
  -0.3,                                   ! Maximum Dry-Bulb Temperature {C}
  0,                                      ! Daily Dry-Bulb Temperature Range {deltaC}
  -10.2,                                  ! Humidity Indicating Conditions at Maximum Dry-Bulb {BasedOnField A3}
  100762,                                 ! Barometric Pressure {Pa}
  2.7,                                    ! Wind Speed {m/s}
  0,                                      ! Wind Direction {deg}
  0,                                      ! Sky Clearness
  0,                                      ! Rain Indicator
  0,                                      ! Snow Indicator
  21,                                     ! Day of Month
  1,                                      ! Month
  WinterDesignDay,                        ! Day Type
  0,                                      ! Daylight Saving Time Indicator
  Dewpoint,                               ! Humidity Indicating Type
  ,                                       ! Humidity Indicating Day Schedule Name
  DefaultMultipliers,                     ! Dry-Bulb Temperature Range Modifier Type
  ,                                       ! Dry-Bulb Temperature Range Modifier Schedule Name
  ASHRAEClearSky;                         ! Solar Model Indicator

OS:ComponentData,
  {148c2a9d-c1f6-4fb3-877e-e462cf188492}, ! Handle
  Component Data 1,                       ! Name
  {762ecf93-543d-44e2-8aae-748a27101bec}, ! UUID
  {232ae9e6-36fd-48c0-acff-00ad6e495d8e}, ! Version UUID
  1366308625,                             ! Creation Timestamp
  1366308625,                             ! Version Timestamp
  {a4cdda78-3651-4e9f-9ae4-1a1c27195b5f}; ! Name of Object 1

