
OS:Version,
  {ea29af69-f3ab-414b-ae24-c3230e9d63bb}, ! Handle
  0.9.3;                                  ! Version Identifier

OS:SizingPeriod:DesignDay,
  {a66dce75-3f24-4a1e-b684-02f1b6972ada}, ! Handle
  Hutchinson  Awos Ann Clg .4% Condns DB=>MWB, ! Name
  32.4,                                   ! Maximum Dry-Bulb Temperature {C}
  10.9,                                   ! Daily Dry-Bulb Temperature Range {deltaC}
  23.6,                                   ! Humidity Indicating Conditions at Maximum Dry-Bulb {BasedOnField A3}
  97504,                                  ! Barometric Pressure {Pa}
  4.5,                                    ! Wind Speed {m/s}
  170,                                    ! Wind Direction {deg}
  0,                                      ! Sky Clearness
  0,                                      ! Rain Indicator
  0,                                      ! Snow Indicator
  21,                                     ! Day of Month
  7,                                      ! Month
  SummerDesignDay,                        ! Day Type
  0,                                      ! Daylight Saving Time Indicator
  Wetbulb,                                ! Humidity Indicating Type
  ,                                       ! Humidity Indicating Day Schedule Name
  DefaultMultipliers,                     ! Dry-Bulb Temperature Range Modifier Type
  ,                                       ! Dry-Bulb Temperature Range Modifier Schedule Name
  ASHRAETau,                              ! Solar Model Indicator
  ,                                       ! Beam Solar Day Schedule Name
  ,                                       ! Diffuse Solar Day Schedule Name
  0.404,                                  ! ASHRAE Taub {dimensionless}
  2.234;                                  ! ASHRAE Taud {dimensionless}

OS:ComponentData,
  {f4473f8b-0083-4eb2-a30b-f7f6a8f9e33e}, ! Handle
  Component Data 1,                       ! Name
  {eccd5ff5-7e82-48b0-b5ae-d1818224bdec}, ! UUID
  {afaaf685-de67-4f9c-bbc1-6cd6d08509b8}, ! Version UUID
  1366308260,                             ! Creation Timestamp
  1366308260,                             ! Version Timestamp
  {a66dce75-3f24-4a1e-b684-02f1b6972ada}; ! Name of Object 1

