
OS:Version,
  {d709cd97-11f6-4840-80ce-ab10031fd430}, ! Handle
  0.9.3;                                  ! Version Identifier

OS:SizingPeriod:DesignDay,
  {b2e2cf86-3480-4356-b13e-4f1cc396d79b}, ! Handle
  Fort Worth/Meacham Fie Ann Htg 99.6% Condns DB, ! Name
  -7.3,                                   ! Maximum Dry-Bulb Temperature {C}
  0,                                      ! Daily Dry-Bulb Temperature Range {deltaC}
  -7.3,                                   ! Humidity Indicating Conditions at Maximum Dry-Bulb {BasedOnField A3}
  98757,                                  ! Barometric Pressure {Pa}
  4.4,                                    ! Wind Speed {m/s}
  0,                                      ! Wind Direction {deg}
  0,                                      ! Sky Clearness
  0,                                      ! Rain Indicator
  0,                                      ! Snow Indicator
  21,                                     ! Day of Month
  1,                                      ! Month
  WinterDesignDay,                        ! Day Type
  0,                                      ! Daylight Saving Time Indicator
  Wetbulb,                                ! Humidity Indicating Type
  ,                                       ! Humidity Indicating Day Schedule Name
  DefaultMultipliers,                     ! Dry-Bulb Temperature Range Modifier Type
  ,                                       ! Dry-Bulb Temperature Range Modifier Schedule Name
  ASHRAEClearSky;                         ! Solar Model Indicator

OS:ComponentData,
  {b1cbc9c2-23db-4227-9a9d-1478930cfb77}, ! Handle
  Component Data 1,                       ! Name
  {1aa27699-d7bc-44a6-b21b-16e84855642c}, ! UUID
  {9f0cc86c-f236-4bf2-ad35-fc2ef85ef5d2}, ! Version UUID
  1366310704,                             ! Creation Timestamp
  1366310704,                             ! Version Timestamp
  {b2e2cf86-3480-4356-b13e-4f1cc396d79b}; ! Name of Object 1

