
OS:Version,
  {ed204897-b2e3-44f9-91fc-f937ec9ba83f}, ! Handle
  0.9.3;                                  ! Version Identifier

OS:SizingPeriod:DesignDay,
  {aa684888-5df4-418f-a7e7-e7bae1e6cbd7}, ! Handle
  Fairmont Muni Awos Ann Htg 99.6% Condns DB, ! Name
  -24,                                    ! Maximum Dry-Bulb Temperature {C}
  0,                                      ! Daily Dry-Bulb Temperature Range {deltaC}
  -24,                                    ! Humidity Indicating Conditions at Maximum Dry-Bulb {BasedOnField A3}
  97144,                                  ! Barometric Pressure {Pa}
  5.3,                                    ! Wind Speed {m/s}
  330,                                    ! Wind Direction {deg}
  0,                                      ! Sky Clearness
  0,                                      ! Rain Indicator
  0,                                      ! Snow Indicator
  21,                                     ! Day of Month
  1,                                      ! Month
  WinterDesignDay,                        ! Day Type
  0,                                      ! Daylight Saving Time Indicator
  Wetbulb,                                ! Humidity Indicating Type
  ,                                       ! Humidity Indicating Day Schedule Name
  DefaultMultipliers,                     ! Dry-Bulb Temperature Range Modifier Type
  ,                                       ! Dry-Bulb Temperature Range Modifier Schedule Name
  ASHRAEClearSky;                         ! Solar Model Indicator

