
OS:Version,
  {736c5619-07da-4e73-b18e-12367ce05ac9}, ! Handle
  0.9.3;                                  ! Version Identifier

OS:SizingPeriod:DesignDay,
  {2e64c35e-c565-4fff-b2cb-421eeaf63b0a}, ! Handle
  Fairmont Muni Awos Ann Htg 99.6% Condns DB, ! Name
  -24,                                    ! Maximum Dry-Bulb Temperature {C}
  0,                                      ! Daily Dry-Bulb Temperature Range {deltaC}
  -24,                                    ! Humidity Indicating Conditions at Maximum Dry-Bulb {BasedOnField A3}
  97144,                                  ! Barometric Pressure {Pa}
  5.3,                                    ! Wind Speed {m/s}
  330,                                    ! Wind Direction {deg}
  0,                                      ! Sky Clearness
  0,                                      ! Rain Indicator
  0,                                      ! Snow Indicator
  21,                                     ! Day of Month
  1,                                      ! Month
  WinterDesignDay,                        ! Day Type
  0,                                      ! Daylight Saving Time Indicator
  Wetbulb,                                ! Humidity Indicating Type
  ,                                       ! Humidity Indicating Day Schedule Name
  DefaultMultipliers,                     ! Dry-Bulb Temperature Range Modifier Type
  ,                                       ! Dry-Bulb Temperature Range Modifier Schedule Name
  ASHRAEClearSky;                         ! Solar Model Indicator

OS:ComponentData,
  {92326812-24f5-405e-8734-fcdf38b7e8f2}, ! Handle
  Component Data 1,                       ! Name
  {9e15ee2a-945b-4793-8ada-b31072ead578}, ! UUID
  {2d78429a-3b58-4634-b4f5-42aafcc4efb4}, ! Version UUID
  1366308223,                             ! Creation Timestamp
  1366308223,                             ! Version Timestamp
  {2e64c35e-c565-4fff-b2cb-421eeaf63b0a}; ! Name of Object 1

