
OS:Version,
  {89f76757-70a5-42c6-b440-52eeea9ff8d1}, ! Handle
  0.9.3;                                  ! Version Identifier

OS:SizingPeriod:DesignDay,
  {3ed676ce-1823-4509-be58-14c983bf9297}, ! Handle
  BRIDGEPORT Ann Clg 2% Condns DP=>MDB,   ! Name
  25.1,                                   ! Maximum Dry-Bulb Temperature {C}
  7.6,                                    ! Daily Dry-Bulb Temperature Range {deltaC}
  22.1,                                   ! Humidity Indicating Conditions at Maximum Dry-Bulb {BasedOnField A3}
  101301,                                 ! Barometric Pressure {Pa}
  4.8,                                    ! Wind Speed {m/s}
  240,                                    ! Wind Direction {deg}
  0,                                      ! Sky Clearness
  0,                                      ! Rain Indicator
  0,                                      ! Snow Indicator
  21,                                     ! Day of Month
  7,                                      ! Month
  SummerDesignDay,                        ! Day Type
  0,                                      ! Daylight Saving Time Indicator
  Dewpoint,                               ! Humidity Indicating Type
  ,                                       ! Humidity Indicating Day Schedule Name
  DefaultMultipliers,                     ! Dry-Bulb Temperature Range Modifier Type
  ,                                       ! Dry-Bulb Temperature Range Modifier Schedule Name
  ASHRAETau,                              ! Solar Model Indicator
  ,                                       ! Beam Solar Day Schedule Name
  ,                                       ! Diffuse Solar Day Schedule Name
  0.516,                                  ! ASHRAE Taub {dimensionless}
  1.863;                                  ! ASHRAE Taud {dimensionless}

