
OS:Version,
  {fd2f5dd1-6414-4a37-a690-7df580de8c6e}, ! Handle
  0.9.3;                                  ! Version Identifier

OS:SizingPeriod:DesignDay,
  {68a67bf7-0456-4449-b4c7-0e9091974cb9}, ! Handle
  Fort Wayne Intl Ap Ann Htg Wind 99.6% Condns WS=>MCDB, ! Name
  -4.7,                                   ! Maximum Dry-Bulb Temperature {C}
  0,                                      ! Daily Dry-Bulb Temperature Range {deltaC}
  -4.7,                                   ! Humidity Indicating Conditions at Maximum Dry-Bulb {BasedOnField A3}
  98463,                                  ! Barometric Pressure {Pa}
  13.3,                                   ! Wind Speed {m/s}
  260,                                    ! Wind Direction {deg}
  0,                                      ! Sky Clearness
  0,                                      ! Rain Indicator
  0,                                      ! Snow Indicator
  21,                                     ! Day of Month
  1,                                      ! Month
  WinterDesignDay,                        ! Day Type
  0,                                      ! Daylight Saving Time Indicator
  Wetbulb,                                ! Humidity Indicating Type
  ,                                       ! Humidity Indicating Day Schedule Name
  DefaultMultipliers,                     ! Dry-Bulb Temperature Range Modifier Type
  ,                                       ! Dry-Bulb Temperature Range Modifier Schedule Name
  ASHRAEClearSky;                         ! Solar Model Indicator

OS:ComponentData,
  {eafffc2e-8255-4cde-ad10-55b2e69f6707}, ! Handle
  Component Data 1,                       ! Name
  {768a4bb3-8399-4350-ab78-09545a6242ce}, ! UUID
  {ec66d19d-2f02-410f-a317-204addd8a035}, ! Version UUID
  1366307445,                             ! Creation Timestamp
  1366307445,                             ! Version Timestamp
  {68a67bf7-0456-4449-b4c7-0e9091974cb9}; ! Name of Object 1

