
OS:Version,
  {2dc0ebc6-7f41-40ab-88b3-ad4f04c0577c}, ! Handle
  0.9.3;                                  ! Version Identifier

OS:SizingPeriod:DesignDay,
  {675dbf9b-6dbb-41bb-afb1-d4ff57acc888}, ! Handle
  BROWNSVILLE Ann Clg 1% Condns DP=>MDB,  ! Name
  28.2,                                   ! Maximum Dry-Bulb Temperature {C}
  9.5,                                    ! Daily Dry-Bulb Temperature Range {deltaC}
  25.8,                                   ! Humidity Indicating Conditions at Maximum Dry-Bulb {BasedOnField A3}
  101253,                                 ! Barometric Pressure {Pa}
  6.9,                                    ! Wind Speed {m/s}
  160,                                    ! Wind Direction {deg}
  0,                                      ! Sky Clearness
  0,                                      ! Rain Indicator
  0,                                      ! Snow Indicator
  21,                                     ! Day of Month
  8,                                      ! Month
  SummerDesignDay,                        ! Day Type
  0,                                      ! Daylight Saving Time Indicator
  Dewpoint,                               ! Humidity Indicating Type
  ,                                       ! Humidity Indicating Day Schedule Name
  DefaultMultipliers,                     ! Dry-Bulb Temperature Range Modifier Type
  ,                                       ! Dry-Bulb Temperature Range Modifier Schedule Name
  ASHRAETau,                              ! Solar Model Indicator
  ,                                       ! Beam Solar Day Schedule Name
  ,                                       ! Diffuse Solar Day Schedule Name
  0.465,                                  ! ASHRAE Taub {dimensionless}
  2.114;                                  ! ASHRAE Taud {dimensionless}

OS:ComponentData,
  {9655436c-fea4-42ca-9f5d-78f59bbf7fcd}, ! Handle
  Component Data 1,                       ! Name
  {7d3ac920-e5be-4c7a-8358-2797628dfc67}, ! UUID
  {865804e1-4dbe-4f55-8269-92b4a01cce50}, ! Version UUID
  1366310610,                             ! Creation Timestamp
  1366310610,                             ! Version Timestamp
  {675dbf9b-6dbb-41bb-afb1-d4ff57acc888}; ! Name of Object 1

