
OS:Version,
  {f8b81d26-1b8e-47f3-96aa-b7142f54117c}, ! Handle
  0.9.3;                                  ! Version Identifier

OS:SizingPeriod:DesignDay,
  {20116aca-5fc0-40b6-b10c-52169598fa65}, ! Handle
  International Falls Intl Ap Ann Clg .4% Condns WB=>MDB, ! Name
  27.7,                                   ! Maximum Dry-Bulb Temperature {C}
  12.4,                                   ! Daily Dry-Bulb Temperature Range {deltaC}
  22.8,                                   ! Humidity Indicating Conditions at Maximum Dry-Bulb {BasedOnField A3}
  97086,                                  ! Barometric Pressure {Pa}
  4.7,                                    ! Wind Speed {m/s}
  200,                                    ! Wind Direction {deg}
  0,                                      ! Sky Clearness
  0,                                      ! Rain Indicator
  0,                                      ! Snow Indicator
  21,                                     ! Day of Month
  7,                                      ! Month
  SummerDesignDay,                        ! Day Type
  0,                                      ! Daylight Saving Time Indicator
  Wetbulb,                                ! Humidity Indicating Type
  ,                                       ! Humidity Indicating Day Schedule Name
  DefaultMultipliers,                     ! Dry-Bulb Temperature Range Modifier Type
  ,                                       ! Dry-Bulb Temperature Range Modifier Schedule Name
  ASHRAETau,                              ! Solar Model Indicator
  ,                                       ! Beam Solar Day Schedule Name
  ,                                       ! Diffuse Solar Day Schedule Name
  0.405,                                  ! ASHRAE Taub {dimensionless}
  2.2;                                    ! ASHRAE Taud {dimensionless}

OS:ComponentData,
  {0eb79af0-8e05-475d-9479-349193be3f71}, ! Handle
  Component Data 1,                       ! Name
  {ab33e248-bbbb-498f-9e05-5532cf5edcf1}, ! UUID
  {11e5d37b-f0e0-4809-bddb-9faa43bcf4f5}, ! Version UUID
  1366308277,                             ! Creation Timestamp
  1366308277,                             ! Version Timestamp
  {20116aca-5fc0-40b6-b10c-52169598fa65}; ! Name of Object 1

