
OS:Version,
  {252649b7-cb4e-4991-83be-49f1f9aaba73}, ! Handle
  0.9.3;                                  ! Version Identifier

OS:SizingPeriod:DesignDay,
  {a5d27313-9269-4bab-9161-9fdd7ddfe979}, ! Handle
  Fort Yukon Ann Clg 2% Condns WB=>MDB,   ! Name
  21.7,                                   ! Maximum Dry-Bulb Temperature {C}
  10.2,                                   ! Daily Dry-Bulb Temperature Range {deltaC}
  15.1,                                   ! Humidity Indicating Conditions at Maximum Dry-Bulb {BasedOnField A3}
  99702,                                  ! Barometric Pressure {Pa}
  2.8,                                    ! Wind Speed {m/s}
  60,                                     ! Wind Direction {deg}
  0,                                      ! Sky Clearness
  0,                                      ! Rain Indicator
  0,                                      ! Snow Indicator
  21,                                     ! Day of Month
  7,                                      ! Month
  SummerDesignDay,                        ! Day Type
  0,                                      ! Daylight Saving Time Indicator
  Wetbulb,                                ! Humidity Indicating Type
  ,                                       ! Humidity Indicating Day Schedule Name
  DefaultMultipliers,                     ! Dry-Bulb Temperature Range Modifier Type
  ,                                       ! Dry-Bulb Temperature Range Modifier Schedule Name
  ASHRAETau,                              ! Solar Model Indicator
  ,                                       ! Beam Solar Day Schedule Name
  ,                                       ! Diffuse Solar Day Schedule Name
  0.412,                                  ! ASHRAE Taub {dimensionless}
  2.049;                                  ! ASHRAE Taud {dimensionless}

OS:ComponentData,
  {1b6a8953-e509-48f4-9036-be1207f9730b}, ! Handle
  Component Data 1,                       ! Name
  {59023456-6ae3-401b-8758-50c9960f6629}, ! UUID
  {9a362e62-fef5-418d-8baa-61e621d5ee2b}, ! Version UUID
  1366305278,                             ! Creation Timestamp
  1366305278,                             ! Version Timestamp
  {a5d27313-9269-4bab-9161-9fdd7ddfe979}; ! Name of Object 1

