
OS:Version,
  {7c5f4fb3-f4f7-4059-a424-c50aaf52f597}, ! Handle
  0.9.3;                                  ! Version Identifier

OS:SizingPeriod:DesignDay,
  {75e83b8e-ec59-4f3c-866c-3a1f7c1498f2}, ! Handle
  Hilo Ann Clg 2% Condns DP=>MDB,         ! Name
  25.6,                                   ! Maximum Dry-Bulb Temperature {C}
  7,                                      ! Daily Dry-Bulb Temperature Range {deltaC}
  23,                                     ! Humidity Indicating Conditions at Maximum Dry-Bulb {BasedOnField A3}
  101193,                                 ! Barometric Pressure {Pa}
  4.8,                                    ! Wind Speed {m/s}
  90,                                     ! Wind Direction {deg}
  0,                                      ! Sky Clearness
  0,                                      ! Rain Indicator
  0,                                      ! Snow Indicator
  21,                                     ! Day of Month
  8,                                      ! Month
  SummerDesignDay,                        ! Day Type
  0,                                      ! Daylight Saving Time Indicator
  Dewpoint,                               ! Humidity Indicating Type
  ,                                       ! Humidity Indicating Day Schedule Name
  DefaultMultipliers,                     ! Dry-Bulb Temperature Range Modifier Type
  ,                                       ! Dry-Bulb Temperature Range Modifier Schedule Name
  ASHRAETau,                              ! Solar Model Indicator
  ,                                       ! Beam Solar Day Schedule Name
  ,                                       ! Diffuse Solar Day Schedule Name
  0.411,                                  ! ASHRAE Taub {dimensionless}
  2.427;                                  ! ASHRAE Taud {dimensionless}

OS:ComponentData,
  {c1041a2c-6fc1-4018-adb0-72bcd13ae38c}, ! Handle
  Component Data 1,                       ! Name
  {560b836c-3cfe-455c-a5a3-9ae29f151c43}, ! UUID
  {7ad001ba-246f-4eeb-9d16-4c426616e635}, ! Version UUID
  1366307081,                             ! Creation Timestamp
  1366307081,                             ! Version Timestamp
  {75e83b8e-ec59-4f3c-866c-3a1f7c1498f2}; ! Name of Object 1

