
OS:Version,
  {962151e5-4d40-431b-869c-804f411e5f66}, ! Handle
  0.9.3;                                  ! Version Identifier

OS:SizingPeriod:DesignDay,
  {d929cf6c-8b83-449c-8fcc-8d72fa264860}, ! Handle
  GRAND_ISLAND Ann Clg .4% Condns DB=>MWB, ! Name
  35.7,                                   ! Maximum Dry-Bulb Temperature {C}
  12.2,                                   ! Daily Dry-Bulb Temperature Range {deltaC}
  23.2,                                   ! Humidity Indicating Conditions at Maximum Dry-Bulb {BasedOnField A3}
  94708,                                  ! Barometric Pressure {Pa}
  6.5,                                    ! Wind Speed {m/s}
  180,                                    ! Wind Direction {deg}
  0,                                      ! Sky Clearness
  0,                                      ! Rain Indicator
  0,                                      ! Snow Indicator
  21,                                     ! Day of Month
  7,                                      ! Month
  SummerDesignDay,                        ! Day Type
  0,                                      ! Daylight Saving Time Indicator
  Wetbulb,                                ! Humidity Indicating Type
  ,                                       ! Humidity Indicating Day Schedule Name
  DefaultMultipliers,                     ! Dry-Bulb Temperature Range Modifier Type
  ,                                       ! Dry-Bulb Temperature Range Modifier Schedule Name
  ASHRAETau,                              ! Solar Model Indicator
  ,                                       ! Beam Solar Day Schedule Name
  ,                                       ! Diffuse Solar Day Schedule Name
  0.405,                                  ! ASHRAE Taub {dimensionless}
  2.23;                                   ! ASHRAE Taud {dimensionless}

OS:ComponentData,
  {b7220191-4c66-49f1-a7ef-5cbfeea7b582}, ! Handle
  Component Data 1,                       ! Name
  {9e2c1f2c-5fae-4702-8f89-d8537cd9c1e8}, ! UUID
  {bf67fc2d-96d7-4bf4-bba8-ef30dcce9092}, ! Version UUID
  1366309121,                             ! Creation Timestamp
  1366309121,                             ! Version Timestamp
  {d929cf6c-8b83-449c-8fcc-8d72fa264860}; ! Name of Object 1

