
OS:Version,
  {d8eee5f1-838a-4b85-9ced-de847e5ea50f}, ! Handle
  0.9.3;                                  ! Version Identifier

OS:SizingPeriod:DesignDay,
  {f1301146-4015-4079-842a-990805446ace}, ! Handle
  Kearney Muni  Awos Ann Htg 99% Condns DB, ! Name
  -16.3,                                  ! Maximum Dry-Bulb Temperature {C}
  0,                                      ! Daily Dry-Bulb Temperature Range {deltaC}
  -16.3,                                  ! Humidity Indicating Conditions at Maximum Dry-Bulb {BasedOnField A3}
  93767,                                  ! Barometric Pressure {Pa}
  4.4,                                    ! Wind Speed {m/s}
  320,                                    ! Wind Direction {deg}
  0,                                      ! Sky Clearness
  0,                                      ! Rain Indicator
  0,                                      ! Snow Indicator
  21,                                     ! Day of Month
  1,                                      ! Month
  WinterDesignDay,                        ! Day Type
  0,                                      ! Daylight Saving Time Indicator
  Wetbulb,                                ! Humidity Indicating Type
  ,                                       ! Humidity Indicating Day Schedule Name
  DefaultMultipliers,                     ! Dry-Bulb Temperature Range Modifier Type
  ,                                       ! Dry-Bulb Temperature Range Modifier Schedule Name
  ASHRAEClearSky;                         ! Solar Model Indicator

OS:ComponentData,
  {b1c4c6f9-6c22-4cc5-888e-3ae7abb13798}, ! Handle
  Component Data 1,                       ! Name
  {fa07d0e7-b604-4210-a404-c9e40eaa596c}, ! UUID
  {7e77934a-83a9-4449-958d-0b00e178dc2e}, ! Version UUID
  1366309134,                             ! Creation Timestamp
  1366309134,                             ! Version Timestamp
  {f1301146-4015-4079-842a-990805446ace}; ! Name of Object 1

