
OS:Version,
  {0c56eb43-9f00-495e-999e-5f7d672e04b3}, ! Handle
  0.9.3;                                  ! Version Identifier

OS:SizingPeriod:DesignDay,
  {f23cffad-99eb-42a6-b31d-ac67ebb5e58f}, ! Handle
  Fresno Ann Clg 2% Condns DP=>MDB,       ! Name
  28,                                     ! Maximum Dry-Bulb Temperature {C}
  16.4,                                   ! Daily Dry-Bulb Temperature Range {deltaC}
  16.5,                                   ! Humidity Indicating Conditions at Maximum Dry-Bulb {BasedOnField A3}
  100129,                                 ! Barometric Pressure {Pa}
  3.7,                                    ! Wind Speed {m/s}
  300,                                    ! Wind Direction {deg}
  0,                                      ! Sky Clearness
  0,                                      ! Rain Indicator
  0,                                      ! Snow Indicator
  21,                                     ! Day of Month
  7,                                      ! Month
  SummerDesignDay,                        ! Day Type
  0,                                      ! Daylight Saving Time Indicator
  Dewpoint,                               ! Humidity Indicating Type
  ,                                       ! Humidity Indicating Day Schedule Name
  DefaultMultipliers,                     ! Dry-Bulb Temperature Range Modifier Type
  ,                                       ! Dry-Bulb Temperature Range Modifier Schedule Name
  ASHRAETau,                              ! Solar Model Indicator
  ,                                       ! Beam Solar Day Schedule Name
  ,                                       ! Diffuse Solar Day Schedule Name
  0.428,                                  ! ASHRAE Taub {dimensionless}
  2.152;                                  ! ASHRAE Taud {dimensionless}

OS:ComponentData,
  {a0c84aef-afc0-400e-8da6-dad803b7e094}, ! Handle
  Component Data 1,                       ! Name
  {828ba348-a219-4b49-a57f-af9d1cf6ff9d}, ! UUID
  {3471e4fe-c3ff-4985-b0a5-276067db1738}, ! Version UUID
  1366306437,                             ! Creation Timestamp
  1366306437,                             ! Version Timestamp
  {f23cffad-99eb-42a6-b31d-ac67ebb5e58f}; ! Name of Object 1

