
OS:Version,
  {130a9f76-272c-440d-96b9-cac684ffd3a6}, ! Handle
  0.9.3;                                  ! Version Identifier

OS:SizingPeriod:DesignDay,
  {4c8503ff-b0b5-4c44-9b1f-765e3a72beee}, ! Handle
  Batesville  Awos Ann Htg Wind 99% Condns WS=>MCDB, ! Name
  11.9,                                   ! Maximum Dry-Bulb Temperature {C}
  0,                                      ! Daily Dry-Bulb Temperature Range {deltaC}
  11.9,                                   ! Humidity Indicating Conditions at Maximum Dry-Bulb {BasedOnField A3}
  99643,                                  ! Barometric Pressure {Pa}
  8,                                      ! Wind Speed {m/s}
  330,                                    ! Wind Direction {deg}
  0,                                      ! Sky Clearness
  0,                                      ! Rain Indicator
  0,                                      ! Snow Indicator
  21,                                     ! Day of Month
  1,                                      ! Month
  WinterDesignDay,                        ! Day Type
  0,                                      ! Daylight Saving Time Indicator
  Wetbulb,                                ! Humidity Indicating Type
  ,                                       ! Humidity Indicating Day Schedule Name
  DefaultMultipliers,                     ! Dry-Bulb Temperature Range Modifier Type
  ,                                       ! Dry-Bulb Temperature Range Modifier Schedule Name
  ASHRAEClearSky;                         ! Solar Model Indicator

