
OS:Version,
  {5f1e0a67-e077-4169-b91f-d9ba55619cac}, ! Handle
  0.9.3;                                  ! Version Identifier

OS:SizingPeriod:DesignDay,
  {71bacbcb-5d2d-4e6e-8289-763ca0d7f5d4}, ! Handle
  GREAT_FALLS Ann Htg 99% Condns DB,      ! Name
  -23.5,                                  ! Maximum Dry-Bulb Temperature {C}
  0,                                      ! Daily Dry-Bulb Temperature Range {deltaC}
  -23.5,                                  ! Humidity Indicating Conditions at Maximum Dry-Bulb {BasedOnField A3}
  88617,                                  ! Barometric Pressure {Pa}
  2,                                      ! Wind Speed {m/s}
  40,                                     ! Wind Direction {deg}
  0,                                      ! Sky Clearness
  0,                                      ! Rain Indicator
  0,                                      ! Snow Indicator
  21,                                     ! Day of Month
  1,                                      ! Month
  WinterDesignDay,                        ! Day Type
  0,                                      ! Daylight Saving Time Indicator
  Wetbulb,                                ! Humidity Indicating Type
  ,                                       ! Humidity Indicating Day Schedule Name
  DefaultMultipliers,                     ! Dry-Bulb Temperature Range Modifier Type
  ,                                       ! Dry-Bulb Temperature Range Modifier Schedule Name
  ASHRAEClearSky;                         ! Solar Model Indicator

OS:ComponentData,
  {2b4a2c4e-b276-4e92-a93e-0e8006e776af}, ! Handle
  Component Data 1,                       ! Name
  {539b5beb-fb2a-4da2-a4a9-b368a000825e}, ! UUID
  {2064cac6-3fb9-4691-a3a6-5684e0a4621e}, ! Version UUID
  1366308771,                             ! Creation Timestamp
  1366308771,                             ! Version Timestamp
  {71bacbcb-5d2d-4e6e-8289-763ca0d7f5d4}; ! Name of Object 1

