
OS:Version,
  {5740bc5d-a87d-4cdf-8776-2d13e8eceec4}, ! Handle
  0.9.3;                                  ! Version Identifier

OS:SizingPeriod:DesignDay,
  {8ee3f038-1977-4e44-8f1b-0869ff7bf098}, ! Handle
  Caribou Municipal Arpt Ann Clg 2% Condns WB=>MDB, ! Name
  24.1,                                   ! Maximum Dry-Bulb Temperature {C}
  10.9,                                   ! Daily Dry-Bulb Temperature Range {deltaC}
  20.1,                                   ! Humidity Indicating Conditions at Maximum Dry-Bulb {BasedOnField A3}
  99063,                                  ! Barometric Pressure {Pa}
  4.3,                                    ! Wind Speed {m/s}
  250,                                    ! Wind Direction {deg}
  0,                                      ! Sky Clearness
  0,                                      ! Rain Indicator
  0,                                      ! Snow Indicator
  21,                                     ! Day of Month
  7,                                      ! Month
  SummerDesignDay,                        ! Day Type
  0,                                      ! Daylight Saving Time Indicator
  Wetbulb,                                ! Humidity Indicating Type
  ,                                       ! Humidity Indicating Day Schedule Name
  DefaultMultipliers,                     ! Dry-Bulb Temperature Range Modifier Type
  ,                                       ! Dry-Bulb Temperature Range Modifier Schedule Name
  ASHRAETau,                              ! Solar Model Indicator
  ,                                       ! Beam Solar Day Schedule Name
  ,                                       ! Diffuse Solar Day Schedule Name
  0.429,                                  ! ASHRAE Taub {dimensionless}
  2.106;                                  ! ASHRAE Taud {dimensionless}

OS:ComponentData,
  {fbeb674c-cbf1-484d-abc0-052aab27d240}, ! Handle
  Component Data 1,                       ! Name
  {8a5a5b34-169d-408a-ad34-6b38739aaccd}, ! UUID
  {35499641-281f-441a-b64b-b1aadf40a83a}, ! Version UUID
  1366307895,                             ! Creation Timestamp
  1366307895,                             ! Version Timestamp
  {8ee3f038-1977-4e44-8f1b-0869ff7bf098}; ! Name of Object 1

