
OS:Version,
  {dc38f504-4cb7-4d8b-9c6e-b42800d0ade0}, ! Handle
  0.9.3;                                  ! Version Identifier

OS:SizingPeriod:DesignDay,
  {ebf11c12-f498-455d-b628-4390a06c0519}, ! Handle
  Charles City Ann Hum_n 99.6% Condns DP=>MCDB, ! Name
  -21.7,                                  ! Maximum Dry-Bulb Temperature {C}
  0,                                      ! Daily Dry-Bulb Temperature Range {deltaC}
  -26.3,                                  ! Humidity Indicating Conditions at Maximum Dry-Bulb {BasedOnField A3}
  97272,                                  ! Barometric Pressure {Pa}
  3.8,                                    ! Wind Speed {m/s}
  310,                                    ! Wind Direction {deg}
  0,                                      ! Sky Clearness
  0,                                      ! Rain Indicator
  0,                                      ! Snow Indicator
  21,                                     ! Day of Month
  1,                                      ! Month
  WinterDesignDay,                        ! Day Type
  0,                                      ! Daylight Saving Time Indicator
  Dewpoint,                               ! Humidity Indicating Type
  ,                                       ! Humidity Indicating Day Schedule Name
  DefaultMultipliers,                     ! Dry-Bulb Temperature Range Modifier Type
  ,                                       ! Dry-Bulb Temperature Range Modifier Schedule Name
  ASHRAEClearSky;                         ! Solar Model Indicator

OS:ComponentData,
  {a29fb5d9-4d24-4cf8-94b2-3d1282f84d2b}, ! Handle
  Component Data 1,                       ! Name
  {bddab827-bf06-41ab-a74a-a3c56d7b93f9}, ! UUID
  {633fd096-834f-4f45-966f-c5889a1c8aeb}, ! Version UUID
  1366307155,                             ! Creation Timestamp
  1366307155,                             ! Version Timestamp
  {ebf11c12-f498-455d-b628-4390a06c0519}; ! Name of Object 1

