
OS:Version,
  {5e978c52-91c4-4446-b04f-0823e3a9bd04}, ! Handle
  0.9.3;                                  ! Version Identifier

OS:SizingPeriod:DesignDay,
  {3bc2c3e6-a1e5-4402-a95b-f800e711d220}, ! Handle
  Belmar Asc Ann Htg 99.6% Condns DB,     ! Name
  -11.8,                                  ! Maximum Dry-Bulb Temperature {C}
  0,                                      ! Daily Dry-Bulb Temperature Range {deltaC}
  -11.8,                                  ! Humidity Indicating Conditions at Maximum Dry-Bulb {BasedOnField A3}
  101013,                                 ! Barometric Pressure {Pa}
  5,                                      ! Wind Speed {m/s}
  320,                                    ! Wind Direction {deg}
  0,                                      ! Sky Clearness
  0,                                      ! Rain Indicator
  0,                                      ! Snow Indicator
  21,                                     ! Day of Month
  1,                                      ! Month
  WinterDesignDay,                        ! Day Type
  0,                                      ! Daylight Saving Time Indicator
  Wetbulb,                                ! Humidity Indicating Type
  ,                                       ! Humidity Indicating Day Schedule Name
  DefaultMultipliers,                     ! Dry-Bulb Temperature Range Modifier Type
  ,                                       ! Dry-Bulb Temperature Range Modifier Schedule Name
  ASHRAEClearSky;                         ! Solar Model Indicator

OS:ComponentData,
  {0e0196f8-e02e-4b7c-a8a3-62c4aa866c7d}, ! Handle
  Component Data 1,                       ! Name
  {e1fe0ed0-2a8e-4da8-8695-bc14e81c2d28}, ! UUID
  {678d83f2-5233-4d22-a6c5-867486253bb0}, ! Version UUID
  1366309293,                             ! Creation Timestamp
  1366309293,                             ! Version Timestamp
  {3bc2c3e6-a1e5-4402-a95b-f800e711d220}; ! Name of Object 1

