
OS:Version,
  {5e7f55ea-7115-46bc-ac08-d53a50d5aedd}, ! Handle
  0.9.3;                                  ! Version Identifier

OS:SizingPeriod:DesignDay,
  {d47e913f-1918-4d45-a6f6-bce868a62dc4}, ! Handle
  Fairbanks Intl Arpt Ann Clg 1% Condns DP=>MDB, ! Name
  17.8,                                   ! Maximum Dry-Bulb Temperature {C}
  10.2,                                   ! Daily Dry-Bulb Temperature Range {deltaC}
  13.7,                                   ! Humidity Indicating Conditions at Maximum Dry-Bulb {BasedOnField A3}
  99737,                                  ! Barometric Pressure {Pa}
  3.1,                                    ! Wind Speed {m/s}
  180,                                    ! Wind Direction {deg}
  0,                                      ! Sky Clearness
  0,                                      ! Rain Indicator
  0,                                      ! Snow Indicator
  21,                                     ! Day of Month
  7,                                      ! Month
  SummerDesignDay,                        ! Day Type
  0,                                      ! Daylight Saving Time Indicator
  Dewpoint,                               ! Humidity Indicating Type
  ,                                       ! Humidity Indicating Day Schedule Name
  DefaultMultipliers,                     ! Dry-Bulb Temperature Range Modifier Type
  ,                                       ! Dry-Bulb Temperature Range Modifier Schedule Name
  ASHRAETau,                              ! Solar Model Indicator
  ,                                       ! Beam Solar Day Schedule Name
  ,                                       ! Diffuse Solar Day Schedule Name
  0.387,                                  ! ASHRAE Taub {dimensionless}
  2.212;                                  ! ASHRAE Taud {dimensionless}

