
OS:Version,
  {d66cf17c-0336-45b2-96ea-47327ba11194}, ! Handle
  0.9.3;                                  ! Version Identifier

OS:SizingPeriod:DesignDay,
  {9983b31c-2b89-4088-af2c-1c0cbf9bd8fd}, ! Handle
  Glasgow Intl Arpt Ann Clg 1% Condns WB=>MDB, ! Name
  29.1,                                   ! Maximum Dry-Bulb Temperature {C}
  14.5,                                   ! Daily Dry-Bulb Temperature Range {deltaC}
  19.2,                                   ! Humidity Indicating Conditions at Maximum Dry-Bulb {BasedOnField A3}
  93205,                                  ! Barometric Pressure {Pa}
  5.4,                                    ! Wind Speed {m/s}
  150,                                    ! Wind Direction {deg}
  0,                                      ! Sky Clearness
  0,                                      ! Rain Indicator
  0,                                      ! Snow Indicator
  21,                                     ! Day of Month
  7,                                      ! Month
  SummerDesignDay,                        ! Day Type
  0,                                      ! Daylight Saving Time Indicator
  Wetbulb,                                ! Humidity Indicating Type
  ,                                       ! Humidity Indicating Day Schedule Name
  DefaultMultipliers,                     ! Dry-Bulb Temperature Range Modifier Type
  ,                                       ! Dry-Bulb Temperature Range Modifier Schedule Name
  ASHRAETau,                              ! Solar Model Indicator
  ,                                       ! Beam Solar Day Schedule Name
  ,                                       ! Diffuse Solar Day Schedule Name
  0.424,                                  ! ASHRAE Taub {dimensionless}
  2.044;                                  ! ASHRAE Taud {dimensionless}

OS:ComponentData,
  {b300e133-32dc-4fde-a7d4-911d75989b49}, ! Handle
  Component Data 1,                       ! Name
  {8778b5be-6416-4454-ae0d-f0ae843fc4c2}, ! UUID
  {2a34bcb9-9f3c-425f-8c63-e2a254ae7b3e}, ! Version UUID
  1366308764,                             ! Creation Timestamp
  1366308764,                             ! Version Timestamp
  {9983b31c-2b89-4088-af2c-1c0cbf9bd8fd}; ! Name of Object 1

