
OS:Version,
  {bd56613a-3c02-4da2-a1cb-10d136babf02}, ! Handle
  0.9.3;                                  ! Version Identifier

OS:SizingPeriod:DesignDay,
  {268acfd9-a924-4cec-80f1-06ce5d50a864}, ! Handle
  Eugene Mahlon Sweet Arpt  Uo Ann Htg 99.6% Condns DB, ! Name
  -5.3,                                   ! Maximum Dry-Bulb Temperature {C}
  0,                                      ! Daily Dry-Bulb Temperature Range {deltaC}
  -5.3,                                   ! Humidity Indicating Conditions at Maximum Dry-Bulb {BasedOnField A3}
  100022,                                 ! Barometric Pressure {Pa}
  3,                                      ! Wind Speed {m/s}
  0,                                      ! Wind Direction {deg}
  0,                                      ! Sky Clearness
  0,                                      ! Rain Indicator
  0,                                      ! Snow Indicator
  21,                                     ! Day of Month
  12,                                     ! Month
  WinterDesignDay,                        ! Day Type
  0,                                      ! Daylight Saving Time Indicator
  Wetbulb,                                ! Humidity Indicating Type
  ,                                       ! Humidity Indicating Day Schedule Name
  DefaultMultipliers,                     ! Dry-Bulb Temperature Range Modifier Type
  ,                                       ! Dry-Bulb Temperature Range Modifier Schedule Name
  ASHRAEClearSky;                         ! Solar Model Indicator

OS:ComponentData,
  {b1c51ac3-8cbb-4653-bb4c-bb73baf87e31}, ! Handle
  Component Data 1,                       ! Name
  {0d1ddb10-5286-4f41-abd2-4d625706c9d7}, ! UUID
  {9894ea1e-1bcd-488b-8791-823e7c03d85a}, ! Version UUID
  1366310006,                             ! Creation Timestamp
  1366310006,                             ! Version Timestamp
  {268acfd9-a924-4cec-80f1-06ce5d50a864}; ! Name of Object 1

