
OS:Version,
  {1077a7f6-9521-4b51-8b48-dfdadc127448}, ! Handle
  0.9.3;                                  ! Version Identifier

OS:SizingPeriod:DesignDay,
  {2aff5b61-9a74-4951-8d86-7c383ce3eb02}, ! Handle
  Cleveland Hopkins Intl Ap Ann Htg 99% Condns DB, ! Name
  -13.1,                                  ! Maximum Dry-Bulb Temperature {C}
  0,                                      ! Daily Dry-Bulb Temperature Range {deltaC}
  -13.1,                                  ! Humidity Indicating Conditions at Maximum Dry-Bulb {BasedOnField A3}
  98534,                                  ! Barometric Pressure {Pa}
  4.7,                                    ! Wind Speed {m/s}
  230,                                    ! Wind Direction {deg}
  0,                                      ! Sky Clearness
  0,                                      ! Rain Indicator
  0,                                      ! Snow Indicator
  21,                                     ! Day of Month
  1,                                      ! Month
  WinterDesignDay,                        ! Day Type
  0,                                      ! Daylight Saving Time Indicator
  Wetbulb,                                ! Humidity Indicating Type
  ,                                       ! Humidity Indicating Day Schedule Name
  DefaultMultipliers,                     ! Dry-Bulb Temperature Range Modifier Type
  ,                                       ! Dry-Bulb Temperature Range Modifier Schedule Name
  ASHRAEClearSky;                         ! Solar Model Indicator

OS:ComponentData,
  {92ae53f5-199b-4982-90c3-208dad4e74c6}, ! Handle
  Component Data 1,                       ! Name
  {89f4bca0-a7c1-464c-9900-c6689a42a677}, ! UUID
  {d4418b0b-ca7f-41e1-a6da-1e49d796a0e9}, ! Version UUID
  1366309780,                             ! Creation Timestamp
  1366309780,                             ! Version Timestamp
  {2aff5b61-9a74-4951-8d86-7c383ce3eb02}; ! Name of Object 1

