
OS:Version,
  {2f6ea380-4d3c-403b-82f8-ba29a90c5f32}, ! Handle
  0.9.3;                                  ! Version Identifier

OS:SizingPeriod:DesignDay,
  {d1697074-c110-49a1-bc59-d12edee45f74}, ! Handle
  Grand Forks International Ap Ann Htg Wind 99% Condns WS=>MCDB, ! Name
  -11.4,                                  ! Maximum Dry-Bulb Temperature {C}
  0,                                      ! Daily Dry-Bulb Temperature Range {deltaC}
  -11.4,                                  ! Humidity Indicating Conditions at Maximum Dry-Bulb {BasedOnField A3}
  98287,                                  ! Barometric Pressure {Pa}
  12.5,                                   ! Wind Speed {m/s}
  290,                                    ! Wind Direction {deg}
  0,                                      ! Sky Clearness
  0,                                      ! Rain Indicator
  0,                                      ! Snow Indicator
  21,                                     ! Day of Month
  1,                                      ! Month
  WinterDesignDay,                        ! Day Type
  0,                                      ! Daylight Saving Time Indicator
  Wetbulb,                                ! Humidity Indicating Type
  ,                                       ! Humidity Indicating Day Schedule Name
  DefaultMultipliers,                     ! Dry-Bulb Temperature Range Modifier Type
  ,                                       ! Dry-Bulb Temperature Range Modifier Schedule Name
  ASHRAEClearSky;                         ! Solar Model Indicator

OS:ComponentData,
  {2ded5b37-88f2-461c-bf53-393e6a57e710}, ! Handle
  Component Data 1,                       ! Name
  {a1f4dbc5-b138-42f4-8208-652962eab5ef}, ! UUID
  {b3f3c80d-1fdc-4ff5-ae54-fc2e16638675}, ! Version UUID
  1366309046,                             ! Creation Timestamp
  1366309046,                             ! Version Timestamp
  {d1697074-c110-49a1-bc59-d12edee45f74}; ! Name of Object 1

