
OS:Version,
  {40a6d467-32ac-468d-9287-a489a1c96541}, ! Handle
  0.9.3;                                  ! Version Identifier

OS:SizingPeriod:DesignDay,
  {f45fdb9f-2db5-43a4-9772-53e129525bd6}, ! Handle
  Kelso Wb Ap Ann Hum_n 99% Condns DP=>MCDB, ! Name
  -0.6,                                   ! Maximum Dry-Bulb Temperature {C}
  0,                                      ! Daily Dry-Bulb Temperature Range {deltaC}
  -7.7,                                   ! Humidity Indicating Conditions at Maximum Dry-Bulb {BasedOnField A3}
  101265,                                 ! Barometric Pressure {Pa}
  1.1,                                    ! Wind Speed {m/s}
  160,                                    ! Wind Direction {deg}
  0,                                      ! Sky Clearness
  0,                                      ! Rain Indicator
  0,                                      ! Snow Indicator
  21,                                     ! Day of Month
  12,                                     ! Month
  WinterDesignDay,                        ! Day Type
  0,                                      ! Daylight Saving Time Indicator
  Dewpoint,                               ! Humidity Indicating Type
  ,                                       ! Humidity Indicating Day Schedule Name
  DefaultMultipliers,                     ! Dry-Bulb Temperature Range Modifier Type
  ,                                       ! Dry-Bulb Temperature Range Modifier Schedule Name
  ASHRAEClearSky;                         ! Solar Model Indicator

OS:ComponentData,
  {6db07996-2704-4c76-be8a-0a61122e4e5a}, ! Handle
  Component Data 1,                       ! Name
  {c1c1d036-8af6-42db-8f79-fb2a09d550d7}, ! UUID
  {6a4a2be6-3d37-4604-9295-f5ca829644cd}, ! Version UUID
  1366311296,                             ! Creation Timestamp
  1366311296,                             ! Version Timestamp
  {f45fdb9f-2db5-43a4-9772-53e129525bd6}; ! Name of Object 1

