
OS:Version,
  {021acebd-01f4-4844-9396-68d0c44874ac}, ! Handle
  0.9.3;                                  ! Version Identifier

OS:SizingPeriod:DesignDay,
  {43ee3592-f307-4c9d-a145-43c394c0457f}, ! Handle
  Bowling Green Warren Co Ap Ann Htg 99% Condns DB, ! Name
  -9.4,                                   ! Maximum Dry-Bulb Temperature {C}
  0,                                      ! Daily Dry-Bulb Temperature Range {deltaC}
  -9.4,                                   ! Humidity Indicating Conditions at Maximum Dry-Bulb {BasedOnField A3}
  99406,                                  ! Barometric Pressure {Pa}
  2.9,                                    ! Wind Speed {m/s}
  340,                                    ! Wind Direction {deg}
  0,                                      ! Sky Clearness
  0,                                      ! Rain Indicator
  0,                                      ! Snow Indicator
  21,                                     ! Day of Month
  1,                                      ! Month
  WinterDesignDay,                        ! Day Type
  0,                                      ! Daylight Saving Time Indicator
  Wetbulb,                                ! Humidity Indicating Type
  ,                                       ! Humidity Indicating Day Schedule Name
  DefaultMultipliers,                     ! Dry-Bulb Temperature Range Modifier Type
  ,                                       ! Dry-Bulb Temperature Range Modifier Schedule Name
  ASHRAEClearSky;                         ! Solar Model Indicator

OS:ComponentData,
  {cf82066e-2f88-40e7-ac29-2da7366ea642}, ! Handle
  Component Data 1,                       ! Name
  {31c6ebcc-0483-4516-baa6-020c65b2eb03}, ! UUID
  {c67a0a8c-5bb3-45fa-b69d-74e19f1e4ae9}, ! Version UUID
  1366307610,                             ! Creation Timestamp
  1366307610,                             ! Version Timestamp
  {43ee3592-f307-4c9d-a145-43c394c0457f}; ! Name of Object 1

