
OS:Version,
  {a80c8e1e-5f06-4cee-96ba-a54970dc0ea0}, ! Handle
  0.9.3;                                  ! Version Identifier

OS:SizingPeriod:DesignDay,
  {6cb68dfa-4101-408d-b66a-91550925244e}, ! Handle
  Georgetown  Awos Ann Htg Wind 99% Condns WS=>MCDB, ! Name
  15.7,                                   ! Maximum Dry-Bulb Temperature {C}
  0,                                      ! Daily Dry-Bulb Temperature Range {deltaC}
  15.7,                                   ! Humidity Indicating Conditions at Maximum Dry-Bulb {BasedOnField A3}
  98475,                                  ! Barometric Pressure {Pa}
  10.2,                                   ! Wind Speed {m/s}
  0,                                      ! Wind Direction {deg}
  0,                                      ! Sky Clearness
  0,                                      ! Rain Indicator
  0,                                      ! Snow Indicator
  21,                                     ! Day of Month
  1,                                      ! Month
  WinterDesignDay,                        ! Day Type
  0,                                      ! Daylight Saving Time Indicator
  Wetbulb,                                ! Humidity Indicating Type
  ,                                       ! Humidity Indicating Day Schedule Name
  DefaultMultipliers,                     ! Dry-Bulb Temperature Range Modifier Type
  ,                                       ! Dry-Bulb Temperature Range Modifier Schedule Name
  ASHRAEClearSky;                         ! Solar Model Indicator

OS:ComponentData,
  {f44eee86-c687-4ffb-a36f-fc39f2e0ca9a}, ! Handle
  Component Data 1,                       ! Name
  {72e0830c-d4d9-494e-bd53-a6fedbe98a91}, ! UUID
  {de6bfb04-49c2-42a2-9e2d-5307470a7fd6}, ! Version UUID
  1366310721,                             ! Creation Timestamp
  1366310721,                             ! Version Timestamp
  {6cb68dfa-4101-408d-b66a-91550925244e}; ! Name of Object 1

