
OS:Version,
  {6e5d5b0c-7364-4cbc-95ee-ed8e08e25a21}, ! Handle
  0.9.3;                                  ! Version Identifier

OS:SizingPeriod:DesignDay,
  {adb8ee43-99af-4978-a747-f21d1a019a4c}, ! Handle
  Glen Burnie/Baltimore/ Ann Clg 1% Condns Enth=>MDB, ! Name
  30.3,                                   ! Maximum Dry-Bulb Temperature {C}
  10.4,                                   ! Daily Dry-Bulb Temperature Range {deltaC}
  75600,                                  ! Humidity Indicating Conditions at Maximum Dry-Bulb {BasedOnField A3}
  100762,                                 ! Barometric Pressure {Pa}
  4.6,                                    ! Wind Speed {m/s}
  280,                                    ! Wind Direction {deg}
  0,                                      ! Sky Clearness
  0,                                      ! Rain Indicator
  0,                                      ! Snow Indicator
  21,                                     ! Day of Month
  7,                                      ! Month
  SummerDesignDay,                        ! Day Type
  0,                                      ! Daylight Saving Time Indicator
  Enthalpy,                               ! Humidity Indicating Type
  ,                                       ! Humidity Indicating Day Schedule Name
  DefaultMultipliers,                     ! Dry-Bulb Temperature Range Modifier Type
  ,                                       ! Dry-Bulb Temperature Range Modifier Schedule Name
  ASHRAETau,                              ! Solar Model Indicator
  ,                                       ! Beam Solar Day Schedule Name
  ,                                       ! Diffuse Solar Day Schedule Name
  0.552,                                  ! ASHRAE Taub {dimensionless}
  1.769;                                  ! ASHRAE Taud {dimensionless}

OS:ComponentData,
  {dc673deb-56db-49ff-8db2-c83009fd828c}, ! Handle
  Component Data 1,                       ! Name
  {2ab599bb-9b3b-4f33-b56e-15746a997863}, ! UUID
  {28a841a3-dfc4-462e-8bea-3271a743bbe5}, ! Version UUID
  1366307838,                             ! Creation Timestamp
  1366307838,                             ! Version Timestamp
  {adb8ee43-99af-4978-a747-f21d1a019a4c}; ! Name of Object 1

