
OS:Version,
  {3c64600f-f3ef-4059-affa-898c7ac0752f}, ! Handle
  0.9.3;                                  ! Version Identifier

OS:SizingPeriod:DesignDay,
  {1dd851be-8abe-4a79-b0a1-fd032ed7350c}, ! Handle
  Albuquerque Intl Arpt  Isis Ann Clg 1% Condns DB=>MWB, ! Name
  33.8,                                   ! Maximum Dry-Bulb Temperature {C}
  13.5,                                   ! Daily Dry-Bulb Temperature Range {deltaC}
  15.6,                                   ! Humidity Indicating Conditions at Maximum Dry-Bulb {BasedOnField A3}
  83328,                                  ! Barometric Pressure {Pa}
  4.4,                                    ! Wind Speed {m/s}
  220,                                    ! Wind Direction {deg}
  0,                                      ! Sky Clearness
  0,                                      ! Rain Indicator
  0,                                      ! Snow Indicator
  21,                                     ! Day of Month
  7,                                      ! Month
  SummerDesignDay,                        ! Day Type
  0,                                      ! Daylight Saving Time Indicator
  Wetbulb,                                ! Humidity Indicating Type
  ,                                       ! Humidity Indicating Day Schedule Name
  DefaultMultipliers,                     ! Dry-Bulb Temperature Range Modifier Type
  ,                                       ! Dry-Bulb Temperature Range Modifier Schedule Name
  ASHRAETau,                              ! Solar Model Indicator
  ,                                       ! Beam Solar Day Schedule Name
  ,                                       ! Diffuse Solar Day Schedule Name
  0.463,                                  ! ASHRAE Taub {dimensionless}
  1.887;                                  ! ASHRAE Taud {dimensionless}

OS:ComponentData,
  {6e69d987-8258-46f7-ba37-43393e127f2f}, ! Handle
  Component Data 1,                       ! Name
  {2573ca4a-845c-4d94-a1ec-4a459fdbe2fd}, ! UUID
  {8d17f875-93a6-4440-9c51-7da4f0a5bd7e}, ! Version UUID
  1366309369,                             ! Creation Timestamp
  1366309369,                             ! Version Timestamp
  {1dd851be-8abe-4a79-b0a1-fd032ed7350c}; ! Name of Object 1

