
OS:Version,
  {df8f2faa-b420-4420-ae21-457dfe812c4c}, ! Handle
  0.9.3;                                  ! Version Identifier

OS:SizingPeriod:DesignDay,
  {66d24697-40b4-4971-8e43-6449db6182a0}, ! Handle
  Del Rio Laughlin Afb Ann Clg .4% Condns DB=>MWB, ! Name
  40.1,                                   ! Maximum Dry-Bulb Temperature {C}
  11.9,                                   ! Daily Dry-Bulb Temperature Range {deltaC}
  22.3,                                   ! Humidity Indicating Conditions at Maximum Dry-Bulb {BasedOnField A3}
  97458,                                  ! Barometric Pressure {Pa}
  5.1,                                    ! Wind Speed {m/s}
  130,                                    ! Wind Direction {deg}
  0,                                      ! Sky Clearness
  0,                                      ! Rain Indicator
  0,                                      ! Snow Indicator
  21,                                     ! Day of Month
  7,                                      ! Month
  SummerDesignDay,                        ! Day Type
  0,                                      ! Daylight Saving Time Indicator
  Wetbulb,                                ! Humidity Indicating Type
  ,                                       ! Humidity Indicating Day Schedule Name
  DefaultMultipliers,                     ! Dry-Bulb Temperature Range Modifier Type
  ,                                       ! Dry-Bulb Temperature Range Modifier Schedule Name
  ASHRAETau,                              ! Solar Model Indicator
  ,                                       ! Beam Solar Day Schedule Name
  ,                                       ! Diffuse Solar Day Schedule Name
  0.473,                                  ! ASHRAE Taub {dimensionless}
  2.019;                                  ! ASHRAE Taud {dimensionless}

OS:ComponentData,
  {8e8292c5-130c-4027-aaa9-a4d346dbe2c6}, ! Handle
  Component Data 1,                       ! Name
  {88e8f759-01af-4120-99f6-4bad70c6cffe}, ! UUID
  {320c3d9d-a79a-4665-98fc-aa3ac2e9f6c6}, ! Version UUID
  1366310667,                             ! Creation Timestamp
  1366310667,                             ! Version Timestamp
  {66d24697-40b4-4971-8e43-6449db6182a0}; ! Name of Object 1

