
OS:Version,
  {2af810a7-2d25-4865-85e2-1ad461c9698c}, ! Handle
  0.9.3;                                  ! Version Identifier

OS:SizingPeriod:DesignDay,
  {0ac5b9f7-6038-47c0-945c-6b700b809da9}, ! Handle
  Hooper Bay Ann Clg 1% Condns DP=>MDB,   ! Name
  14.9,                                   ! Maximum Dry-Bulb Temperature {C}
  3.4,                                    ! Daily Dry-Bulb Temperature Range {deltaC}
  12.2,                                   ! Humidity Indicating Conditions at Maximum Dry-Bulb {BasedOnField A3}
  101253,                                 ! Barometric Pressure {Pa}
  5.1,                                    ! Wind Speed {m/s}
  100,                                    ! Wind Direction {deg}
  0,                                      ! Sky Clearness
  0,                                      ! Rain Indicator
  0,                                      ! Snow Indicator
  21,                                     ! Day of Month
  8,                                      ! Month
  SummerDesignDay,                        ! Day Type
  0,                                      ! Daylight Saving Time Indicator
  Dewpoint,                               ! Humidity Indicating Type
  ,                                       ! Humidity Indicating Day Schedule Name
  DefaultMultipliers,                     ! Dry-Bulb Temperature Range Modifier Type
  ,                                       ! Dry-Bulb Temperature Range Modifier Schedule Name
  ASHRAETau,                              ! Solar Model Indicator
  ,                                       ! Beam Solar Day Schedule Name
  ,                                       ! Diffuse Solar Day Schedule Name
  0.429,                                  ! ASHRAE Taub {dimensionless}
  2.014;                                  ! ASHRAE Taud {dimensionless}

OS:ComponentData,
  {5cb6d58b-bf62-4e8f-8c71-f5834f153d4a}, ! Handle
  Component Data 1,                       ! Name
  {0e24b1dc-0687-4be4-9653-8ae5ab894880}, ! UUID
  {db948cfc-075c-4a34-8f53-f536943026aa}, ! Version UUID
  1366305319,                             ! Creation Timestamp
  1366305319,                             ! Version Timestamp
  {0ac5b9f7-6038-47c0-945c-6b700b809da9}; ! Name of Object 1

