
OS:Version,
  {959357be-4850-4460-9815-86e81a70addb}, ! Handle
  0.9.3;                                  ! Version Identifier

OS:SizingPeriod:DesignDay,
  {71db3b9e-4731-443a-8205-625ee6ccdeb0}, ! Handle
  Fremont Muni Arpt Ann Clg 1% Condns DP=>MDB, ! Name
  28.3,                                   ! Maximum Dry-Bulb Temperature {C}
  10.5,                                   ! Daily Dry-Bulb Temperature Range {deltaC}
  22.8,                                   ! Humidity Indicating Conditions at Maximum Dry-Bulb {BasedOnField A3}
  96854,                                  ! Barometric Pressure {Pa}
  5.4,                                    ! Wind Speed {m/s}
  170,                                    ! Wind Direction {deg}
  0,                                      ! Sky Clearness
  0,                                      ! Rain Indicator
  0,                                      ! Snow Indicator
  21,                                     ! Day of Month
  7,                                      ! Month
  SummerDesignDay,                        ! Day Type
  0,                                      ! Daylight Saving Time Indicator
  Dewpoint,                               ! Humidity Indicating Type
  ,                                       ! Humidity Indicating Day Schedule Name
  DefaultMultipliers,                     ! Dry-Bulb Temperature Range Modifier Type
  ,                                       ! Dry-Bulb Temperature Range Modifier Schedule Name
  ASHRAETau,                              ! Solar Model Indicator
  ,                                       ! Beam Solar Day Schedule Name
  ,                                       ! Diffuse Solar Day Schedule Name
  0.415,                                  ! ASHRAE Taub {dimensionless}
  2.218;                                  ! ASHRAE Taud {dimensionless}

OS:ComponentData,
  {c3004ab7-40e6-4db4-b1eb-e03cf853942a}, ! Handle
  Component Data 1,                       ! Name
  {8f56d966-c180-4ad1-97a8-65905341e943}, ! UUID
  {008c706b-edc9-4eb6-9935-229a070e80af}, ! Version UUID
  1366309105,                             ! Creation Timestamp
  1366309105,                             ! Version Timestamp
  {71db3b9e-4731-443a-8205-625ee6ccdeb0}; ! Name of Object 1

