
OS:Version,
  {e07be212-338a-405b-a7d2-3525cac5de1c}, ! Handle
  0.9.3;                                  ! Version Identifier

OS:SizingPeriod:DesignDay,
  {4e786592-bfaa-455c-b94a-26d670a37abd}, ! Handle
  Harlingen Rio Grande Valley I Ann Hum_n 99.6% Condns DP=>MCDB, ! Name
  11.2,                                   ! Maximum Dry-Bulb Temperature {C}
  0,                                      ! Daily Dry-Bulb Temperature Range {deltaC}
  -5,                                     ! Humidity Indicating Conditions at Maximum Dry-Bulb {BasedOnField A3}
  101205,                                 ! Barometric Pressure {Pa}
  6.1,                                    ! Wind Speed {m/s}
  340,                                    ! Wind Direction {deg}
  0,                                      ! Sky Clearness
  0,                                      ! Rain Indicator
  0,                                      ! Snow Indicator
  21,                                     ! Day of Month
  12,                                     ! Month
  WinterDesignDay,                        ! Day Type
  0,                                      ! Daylight Saving Time Indicator
  Dewpoint,                               ! Humidity Indicating Type
  ,                                       ! Humidity Indicating Day Schedule Name
  DefaultMultipliers,                     ! Dry-Bulb Temperature Range Modifier Type
  ,                                       ! Dry-Bulb Temperature Range Modifier Schedule Name
  ASHRAEClearSky;                         ! Solar Model Indicator

OS:ComponentData,
  {6b67c888-6b54-47a4-a826-b7ce5af86db9}, ! Handle
  Component Data 1,                       ! Name
  {5194dba7-4dbb-4c8a-9b79-92f317f36ff7}, ! UUID
  {e4ec5890-875b-4536-8a14-a4c5cbad0aec}, ! Version UUID
  1366310727,                             ! Creation Timestamp
  1366310727,                             ! Version Timestamp
  {4e786592-bfaa-455c-b94a-26d670a37abd}; ! Name of Object 1

