
OS:Version,
  {f453f407-1c4c-4fb7-ba62-f0eb3ce215d5}, ! Handle
  0.9.3;                                  ! Version Identifier

OS:SizingPeriod:DesignDay,
  {6c033b71-c426-4561-97df-91230ef677bf}, ! Handle
  Fort Wayne Intl Ap Ann Clg 2% Condns DP=>MDB, ! Name
  26.2,                                   ! Maximum Dry-Bulb Temperature {C}
  11.1,                                   ! Daily Dry-Bulb Temperature Range {deltaC}
  22.1,                                   ! Humidity Indicating Conditions at Maximum Dry-Bulb {BasedOnField A3}
  98463,                                  ! Barometric Pressure {Pa}
  5,                                      ! Wind Speed {m/s}
  240,                                    ! Wind Direction {deg}
  0,                                      ! Sky Clearness
  0,                                      ! Rain Indicator
  0,                                      ! Snow Indicator
  21,                                     ! Day of Month
  7,                                      ! Month
  SummerDesignDay,                        ! Day Type
  0,                                      ! Daylight Saving Time Indicator
  Dewpoint,                               ! Humidity Indicating Type
  ,                                       ! Humidity Indicating Day Schedule Name
  DefaultMultipliers,                     ! Dry-Bulb Temperature Range Modifier Type
  ,                                       ! Dry-Bulb Temperature Range Modifier Schedule Name
  ASHRAETau,                              ! Solar Model Indicator
  ,                                       ! Beam Solar Day Schedule Name
  ,                                       ! Diffuse Solar Day Schedule Name
  0.451,                                  ! ASHRAE Taub {dimensionless}
  2.059;                                  ! ASHRAE Taud {dimensionless}

OS:ComponentData,
  {a8d7f256-08fd-42a7-807f-5f4faf82808b}, ! Handle
  Component Data 1,                       ! Name
  {d991efdf-be89-4b0c-867b-1fe1638034e8}, ! UUID
  {d2b74a91-4f2b-4e23-8279-14be54f97b21}, ! Version UUID
  1366307447,                             ! Creation Timestamp
  1366307447,                             ! Version Timestamp
  {6c033b71-c426-4561-97df-91230ef677bf}; ! Name of Object 1

