
OS:Version,
  {30aae790-7534-4ca4-8fee-c5016f601f8a}, ! Handle
  0.9.3;                                  ! Version Identifier

OS:SizingPeriod:DesignDay,
  {b8bdc90e-64f2-4db8-88bb-54ac68b992f2}, ! Handle
  La Crosse Municipal Arpt Ann Hum_n 99% Condns DP=>MCDB, ! Name
  -20.5,                                  ! Maximum Dry-Bulb Temperature {C}
  0,                                      ! Daily Dry-Bulb Temperature Range {deltaC}
  -25.9,                                  ! Humidity Indicating Conditions at Maximum Dry-Bulb {BasedOnField A3}
  98969,                                  ! Barometric Pressure {Pa}
  3.4,                                    ! Wind Speed {m/s}
  330,                                    ! Wind Direction {deg}
  0,                                      ! Sky Clearness
  0,                                      ! Rain Indicator
  0,                                      ! Snow Indicator
  21,                                     ! Day of Month
  1,                                      ! Month
  WinterDesignDay,                        ! Day Type
  0,                                      ! Daylight Saving Time Indicator
  Dewpoint,                               ! Humidity Indicating Type
  ,                                       ! Humidity Indicating Day Schedule Name
  DefaultMultipliers,                     ! Dry-Bulb Temperature Range Modifier Type
  ,                                       ! Dry-Bulb Temperature Range Modifier Schedule Name
  ASHRAEClearSky;                         ! Solar Model Indicator

OS:ComponentData,
  {800f4ffa-6a67-4c12-8991-5eb7342e5bda}, ! Handle
  Component Data 1,                       ! Name
  {59439d92-5fbb-4450-af46-d365e64323a6}, ! UUID
  {9f773abb-d1a4-4f50-a947-ce84bd54dd9c}, ! Version UUID
  1366311513,                             ! Creation Timestamp
  1366311513,                             ! Version Timestamp
  {b8bdc90e-64f2-4db8-88bb-54ac68b992f2}; ! Name of Object 1

