
OS:Version,
  {7dbac42f-f32d-4e5c-8cf4-1d8c0739653b}, ! Handle
  0.9.3;                                  ! Version Identifier

OS:SizingPeriod:DesignDay,
  {2d96f7e2-3a13-463e-90c0-5dc50dad1cdc}, ! Handle
  ASTORIA Ann Htg Wind 99% Condns WS=>MCDB, ! Name
  10.3,                                   ! Maximum Dry-Bulb Temperature {C}
  0,                                      ! Daily Dry-Bulb Temperature Range {deltaC}
  10.3,                                   ! Humidity Indicating Conditions at Maximum Dry-Bulb {BasedOnField A3}
  101241,                                 ! Barometric Pressure {Pa}
  12.6,                                   ! Wind Speed {m/s}
  90,                                     ! Wind Direction {deg}
  0,                                      ! Sky Clearness
  0,                                      ! Rain Indicator
  0,                                      ! Snow Indicator
  21,                                     ! Day of Month
  12,                                     ! Month
  WinterDesignDay,                        ! Day Type
  0,                                      ! Daylight Saving Time Indicator
  Wetbulb,                                ! Humidity Indicating Type
  ,                                       ! Humidity Indicating Day Schedule Name
  DefaultMultipliers,                     ! Dry-Bulb Temperature Range Modifier Type
  ,                                       ! Dry-Bulb Temperature Range Modifier Schedule Name
  ASHRAEClearSky;                         ! Solar Model Indicator

OS:ComponentData,
  {c7b86e03-182f-4d22-bfc5-0b64f9f1dc26}, ! Handle
  Component Data 1,                       ! Name
  {3f9afa43-1390-472d-a5ad-fa9a8e5a2c3c}, ! UUID
  {2655628d-7369-4873-a18f-c854e3625b15}, ! Version UUID
  1366309966,                             ! Creation Timestamp
  1366309966,                             ! Version Timestamp
  {2d96f7e2-3a13-463e-90c0-5dc50dad1cdc}; ! Name of Object 1

