
OS:Version,
  {e558167c-56c3-43b3-9db7-1a360c62fb2a}, ! Handle
  0.9.3;                                  ! Version Identifier

OS:SizingPeriod:DesignDay,
  {d8ffe108-b7bd-4f46-a5da-347759a4098f}, ! Handle
  CARIBOU Ann Htg Wind 99% Condns WS=>MCDB, ! Name
  -12.2,                                  ! Maximum Dry-Bulb Temperature {C}
  0,                                      ! Daily Dry-Bulb Temperature Range {deltaC}
  -12.2,                                  ! Humidity Indicating Conditions at Maximum Dry-Bulb {BasedOnField A3}
  99063,                                  ! Barometric Pressure {Pa}
  11.9,                                   ! Wind Speed {m/s}
  290,                                    ! Wind Direction {deg}
  0,                                      ! Sky Clearness
  0,                                      ! Rain Indicator
  0,                                      ! Snow Indicator
  21,                                     ! Day of Month
  1,                                      ! Month
  WinterDesignDay,                        ! Day Type
  0,                                      ! Daylight Saving Time Indicator
  Wetbulb,                                ! Humidity Indicating Type
  ,                                       ! Humidity Indicating Day Schedule Name
  DefaultMultipliers,                     ! Dry-Bulb Temperature Range Modifier Type
  ,                                       ! Dry-Bulb Temperature Range Modifier Schedule Name
  ASHRAEClearSky;                         ! Solar Model Indicator

OS:ComponentData,
  {ef37da99-5cf8-49a4-bf8c-22a280383185}, ! Handle
  Component Data 1,                       ! Name
  {f5c4d6a2-7186-485d-9782-ae0c6539cae1}, ! UUID
  {f664770f-b373-499c-95b1-4d554a249a6c}, ! Version UUID
  1366307886,                             ! Creation Timestamp
  1366307886,                             ! Version Timestamp
  {d8ffe108-b7bd-4f46-a5da-347759a4098f}; ! Name of Object 1

