
OS:Version,
  {bb81e8db-9bbb-43d4-8a5d-79c2e90a6ba2}, ! Handle
  0.9.3;                                  ! Version Identifier

OS:SizingPeriod:DesignDay,
  {cd5d6c49-0f65-4b6c-8acf-736bf6eb63f3}, ! Handle
  Adak Nas Ann Htg Wind 99.6% Condns WS=>MCDB, ! Name
  0.9,                                    ! Maximum Dry-Bulb Temperature {C}
  0,                                      ! Daily Dry-Bulb Temperature Range {deltaC}
  0.9,                                    ! Humidity Indicating Conditions at Maximum Dry-Bulb {BasedOnField A3}
  101265,                                 ! Barometric Pressure {Pa}
  19.2,                                   ! Wind Speed {m/s}
  200,                                    ! Wind Direction {deg}
  0,                                      ! Sky Clearness
  0,                                      ! Rain Indicator
  0,                                      ! Snow Indicator
  21,                                     ! Day of Month
  1,                                      ! Month
  WinterDesignDay,                        ! Day Type
  0,                                      ! Daylight Saving Time Indicator
  Wetbulb,                                ! Humidity Indicating Type
  ,                                       ! Humidity Indicating Day Schedule Name
  DefaultMultipliers,                     ! Dry-Bulb Temperature Range Modifier Type
  ,                                       ! Dry-Bulb Temperature Range Modifier Schedule Name
  ASHRAEClearSky;                         ! Solar Model Indicator

OS:ComponentData,
  {6c0511c6-8326-433f-ba24-d0ad44e34daa}, ! Handle
  Component Data 1,                       ! Name
  {b9921204-991c-4c4b-a888-af08224e5fad}, ! UUID
  {40b929ac-c61d-4ec3-aedd-89a181debccc}, ! Version UUID
  1364004396,                             ! Creation Timestamp
  1364004396,                             ! Version Timestamp
  {cd5d6c49-0f65-4b6c-8acf-736bf6eb63f3}; ! Name of Object 1

