
OS:Version,
  {01dc10b4-178d-4872-ad36-498a3aa872d2}, ! Handle
  0.9.3;                                  ! Version Identifier

OS:SizingPeriod:DesignDay,
  {5a04353c-42d4-4e87-b3fc-3d533cf5cf04}, ! Handle
  Cedar City Municipal Ap Ann Clg .4% Condns Enth=>MDB, ! Name
  27.5,                                   ! Maximum Dry-Bulb Temperature {C}
  16.7,                                   ! Daily Dry-Bulb Temperature Range {deltaC}
  56100,                                  ! Humidity Indicating Conditions at Maximum Dry-Bulb {BasedOnField A3}
  82471,                                  ! Barometric Pressure {Pa}
  5,                                      ! Wind Speed {m/s}
  210,                                    ! Wind Direction {deg}
  0,                                      ! Sky Clearness
  0,                                      ! Rain Indicator
  0,                                      ! Snow Indicator
  21,                                     ! Day of Month
  7,                                      ! Month
  SummerDesignDay,                        ! Day Type
  0,                                      ! Daylight Saving Time Indicator
  Enthalpy,                               ! Humidity Indicating Type
  ,                                       ! Humidity Indicating Day Schedule Name
  DefaultMultipliers,                     ! Dry-Bulb Temperature Range Modifier Type
  ,                                       ! Dry-Bulb Temperature Range Modifier Schedule Name
  ASHRAETau,                              ! Solar Model Indicator
  ,                                       ! Beam Solar Day Schedule Name
  ,                                       ! Diffuse Solar Day Schedule Name
  0.415,                                  ! ASHRAE Taub {dimensionless}
  2.019;                                  ! ASHRAE Taud {dimensionless}

OS:ComponentData,
  {47372478-9b57-450a-b347-9b46ab366446}, ! Handle
  Component Data 1,                       ! Name
  {f7898e62-0d04-4002-9283-7faa5abdcbbd}, ! UUID
  {43bef487-c19e-4bff-993e-52ad69e3d299}, ! Version UUID
  1366310960,                             ! Creation Timestamp
  1366310960,                             ! Version Timestamp
  {5a04353c-42d4-4e87-b3fc-3d533cf5cf04}; ! Name of Object 1

