
OS:Version,
  {7ceecc55-609e-47d4-994e-0d716fbc2ea9}, ! Handle
  0.9.3;                                  ! Version Identifier

OS:SizingPeriod:DesignDay,
  {c9d944f5-03de-4b05-a139-b4ba3a9318d0}, ! Handle
  Fort Polk Aaf Ann Htg Wind 99.6% Condns WS=>MCDB, ! Name
  12.4,                                   ! Maximum Dry-Bulb Temperature {C}
  0,                                      ! Daily Dry-Bulb Temperature Range {deltaC}
  12.4,                                   ! Humidity Indicating Conditions at Maximum Dry-Bulb {BasedOnField A3}
  100106,                                 ! Barometric Pressure {Pa}
  8.8,                                    ! Wind Speed {m/s}
  10,                                     ! Wind Direction {deg}
  0,                                      ! Sky Clearness
  0,                                      ! Rain Indicator
  0,                                      ! Snow Indicator
  21,                                     ! Day of Month
  1,                                      ! Month
  WinterDesignDay,                        ! Day Type
  0,                                      ! Daylight Saving Time Indicator
  Wetbulb,                                ! Humidity Indicating Type
  ,                                       ! Humidity Indicating Day Schedule Name
  DefaultMultipliers,                     ! Dry-Bulb Temperature Range Modifier Type
  ,                                       ! Dry-Bulb Temperature Range Modifier Schedule Name
  ASHRAEClearSky;                         ! Solar Model Indicator

OS:ComponentData,
  {eaaadb6f-e09b-4cdc-8764-b225ed0801ee}, ! Handle
  Component Data 1,                       ! Name
  {5a118eed-02fd-42e1-bd89-394e36e2c768}, ! UUID
  {cfb4cca3-947b-445d-a8fc-b893d13e98e4}, ! Version UUID
  1366307714,                             ! Creation Timestamp
  1366307714,                             ! Version Timestamp
  {c9d944f5-03de-4b05-a139-b4ba3a9318d0}; ! Name of Object 1

