
OS:Version,
  {5e59b3e2-eb01-455b-8dc9-14100d45d9ab}, ! Handle
  0.9.3;                                  ! Version Identifier

OS:SizingPeriod:DesignDay,
  {e017287d-e493-4351-b2c6-8d1a8878138d}, ! Handle
  Camarillo  Awos Ann Clg 2% Condns DP=>MDB, ! Name
  21.6,                                   ! Maximum Dry-Bulb Temperature {C}
  9.7,                                    ! Daily Dry-Bulb Temperature Range {deltaC}
  17.4,                                   ! Humidity Indicating Conditions at Maximum Dry-Bulb {BasedOnField A3}
  101049,                                 ! Barometric Pressure {Pa}
  5.8,                                    ! Wind Speed {m/s}
  60,                                     ! Wind Direction {deg}
  0,                                      ! Sky Clearness
  0,                                      ! Rain Indicator
  0,                                      ! Snow Indicator
  21,                                     ! Day of Month
  8,                                      ! Month
  SummerDesignDay,                        ! Day Type
  0,                                      ! Daylight Saving Time Indicator
  Dewpoint,                               ! Humidity Indicating Type
  ,                                       ! Humidity Indicating Day Schedule Name
  DefaultMultipliers,                     ! Dry-Bulb Temperature Range Modifier Type
  ,                                       ! Dry-Bulb Temperature Range Modifier Schedule Name
  ASHRAETau,                              ! Solar Model Indicator
  ,                                       ! Beam Solar Day Schedule Name
  ,                                       ! Diffuse Solar Day Schedule Name
  0.428,                                  ! ASHRAE Taub {dimensionless}
  2.187;                                  ! ASHRAE Taud {dimensionless}

