
OS:Version,
  {415e95ed-f8d0-4b63-a549-5043655bf3c7}, ! Handle
  0.9.3;                                  ! Version Identifier

OS:SizingPeriod:DesignDay,
  {abc6ede5-7d50-4f03-8412-a917a9d3694a}, ! Handle
  Joslin Fld Magic Va  Twin Fal Ann Clg 1% Condns DP=>MDB, ! Name
  23.7,                                   ! Maximum Dry-Bulb Temperature {C}
  15.7,                                   ! Daily Dry-Bulb Temperature Range {deltaC}
  13.8,                                   ! Humidity Indicating Conditions at Maximum Dry-Bulb {BasedOnField A3}
  87716,                                  ! Barometric Pressure {Pa}
  4,                                      ! Wind Speed {m/s}
  320,                                    ! Wind Direction {deg}
  0,                                      ! Sky Clearness
  0,                                      ! Rain Indicator
  0,                                      ! Snow Indicator
  21,                                     ! Day of Month
  7,                                      ! Month
  SummerDesignDay,                        ! Day Type
  0,                                      ! Daylight Saving Time Indicator
  Dewpoint,                               ! Humidity Indicating Type
  ,                                       ! Humidity Indicating Day Schedule Name
  DefaultMultipliers,                     ! Dry-Bulb Temperature Range Modifier Type
  ,                                       ! Dry-Bulb Temperature Range Modifier Schedule Name
  ASHRAETau,                              ! Solar Model Indicator
  ,                                       ! Beam Solar Day Schedule Name
  ,                                       ! Diffuse Solar Day Schedule Name
  0.42,                                   ! ASHRAE Taub {dimensionless}
  1.979;                                  ! ASHRAE Taud {dimensionless}

OS:ComponentData,
  {2d3991ca-cd86-402b-8342-04e7a076e3ff}, ! Handle
  Component Data 1,                       ! Name
  {2273bf16-c827-45c3-a423-25de37956b5d}, ! UUID
  {b3c8e325-c525-48bd-8fa8-92c710b6ce19}, ! Version UUID
  1366307316,                             ! Creation Timestamp
  1366307316,                             ! Version Timestamp
  {abc6ede5-7d50-4f03-8412-a917a9d3694a}; ! Name of Object 1

