
OS:Version,
  {6ee0db8b-fe38-4b17-9f66-18cdb0bb3c4a}, ! Handle
  0.9.3;                                  ! Version Identifier

OS:SizingPeriod:DesignDay,
  {65515f50-fde9-4eab-b7dd-576c2ebc2696}, ! Handle
  Columbus Port Columbus Intl A Ann Clg 2% Condns DP=>MDB, ! Name
  26.1,                                   ! Maximum Dry-Bulb Temperature {C}
  10.5,                                   ! Daily Dry-Bulb Temperature Range {deltaC}
  21.7,                                   ! Humidity Indicating Conditions at Maximum Dry-Bulb {BasedOnField A3}
  98393,                                  ! Barometric Pressure {Pa}
  4.3,                                    ! Wind Speed {m/s}
  240,                                    ! Wind Direction {deg}
  0,                                      ! Sky Clearness
  0,                                      ! Rain Indicator
  0,                                      ! Snow Indicator
  21,                                     ! Day of Month
  7,                                      ! Month
  SummerDesignDay,                        ! Day Type
  0,                                      ! Daylight Saving Time Indicator
  Dewpoint,                               ! Humidity Indicating Type
  ,                                       ! Humidity Indicating Day Schedule Name
  DefaultMultipliers,                     ! Dry-Bulb Temperature Range Modifier Type
  ,                                       ! Dry-Bulb Temperature Range Modifier Schedule Name
  ASHRAETau,                              ! Solar Model Indicator
  ,                                       ! Beam Solar Day Schedule Name
  ,                                       ! Diffuse Solar Day Schedule Name
  0.484,                                  ! ASHRAE Taub {dimensionless}
  1.943;                                  ! ASHRAE Taud {dimensionless}

OS:ComponentData,
  {5cefdff1-c425-4201-91b0-360b2b4d4d5f}, ! Handle
  Component Data 1,                       ! Name
  {a6eed252-3566-4318-854f-32f0ab4a743c}, ! UUID
  {946c5d0e-bd57-4814-a85d-b2037546e377}, ! Version UUID
  1366309799,                             ! Creation Timestamp
  1366309799,                             ! Version Timestamp
  {65515f50-fde9-4eab-b7dd-576c2ebc2696}; ! Name of Object 1

