
OS:Version,
  {f136b4bd-7d9a-4195-a6c2-0c437e32016e}, ! Handle
  0.9.3;                                  ! Version Identifier

OS:SizingPeriod:DesignDay,
  {7c2ed7e3-e99a-42c6-b80c-524377e128f9}, ! Handle
  Birmingham Municipal Ap Ann Hum_n 99% Condns DP=>MCDB, ! Name
  0.1,                                    ! Maximum Dry-Bulb Temperature {C}
  0,                                      ! Daily Dry-Bulb Temperature Range {deltaC}
  -11.8,                                  ! Humidity Indicating Conditions at Maximum Dry-Bulb {BasedOnField A3}
  99075,                                  ! Barometric Pressure {Pa}
  3.1,                                    ! Wind Speed {m/s}
  350,                                    ! Wind Direction {deg}
  0,                                      ! Sky Clearness
  0,                                      ! Rain Indicator
  0,                                      ! Snow Indicator
  21,                                     ! Day of Month
  1,                                      ! Month
  WinterDesignDay,                        ! Day Type
  0,                                      ! Daylight Saving Time Indicator
  Dewpoint,                               ! Humidity Indicating Type
  ,                                       ! Humidity Indicating Day Schedule Name
  DefaultMultipliers,                     ! Dry-Bulb Temperature Range Modifier Type
  ,                                       ! Dry-Bulb Temperature Range Modifier Schedule Name
  ASHRAEClearSky;                         ! Solar Model Indicator

OS:ComponentData,
  {1a47243a-0bb2-42bf-897d-44b76069b2e9}, ! Handle
  Component Data 1,                       ! Name
  {8eac3bbb-42e3-4d91-ac72-4a8ae122c7fd}, ! UUID
  {56182465-21ff-4722-8ff5-57c30b202e5f}, ! Version UUID
  1366305647,                             ! Creation Timestamp
  1366305647,                             ! Version Timestamp
  {7c2ed7e3-e99a-42c6-b80c-524377e128f9}; ! Name of Object 1

