
OS:Version,
  {4075b2eb-5567-4062-8794-d3af8a72b002}, ! Handle
  0.9.3;                                  ! Version Identifier

OS:SizingPeriod:DesignDay,
  {f562fa25-4b02-4a77-b742-c413519ac523}, ! Handle
  Gadsen Muni  Awos Ann Clg .4% Condns Enth=>MDB, ! Name
  31.9,                                   ! Maximum Dry-Bulb Temperature {C}
  10.9,                                   ! Daily Dry-Bulb Temperature Range {deltaC}
  79400,                                  ! Humidity Indicating Conditions at Maximum Dry-Bulb {BasedOnField A3}
  99264,                                  ! Barometric Pressure {Pa}
  3,                                      ! Wind Speed {m/s}
  300,                                    ! Wind Direction {deg}
  0,                                      ! Sky Clearness
  0,                                      ! Rain Indicator
  0,                                      ! Snow Indicator
  21,                                     ! Day of Month
  7,                                      ! Month
  SummerDesignDay,                        ! Day Type
  0,                                      ! Daylight Saving Time Indicator
  Enthalpy,                               ! Humidity Indicating Type
  ,                                       ! Humidity Indicating Day Schedule Name
  DefaultMultipliers,                     ! Dry-Bulb Temperature Range Modifier Type
  ,                                       ! Dry-Bulb Temperature Range Modifier Schedule Name
  ASHRAETau,                              ! Solar Model Indicator
  ,                                       ! Beam Solar Day Schedule Name
  ,                                       ! Diffuse Solar Day Schedule Name
  0.58,                                   ! ASHRAE Taub {dimensionless}
  1.728;                                  ! ASHRAE Taud {dimensionless}

