
OS:Version,
  {4e0a2a56-7d53-4586-8d7b-cbbfdc22179e}, ! Handle
  0.9.3;                                  ! Version Identifier

OS:SizingPeriod:DesignDay,
  {91698f9d-c0cb-43b9-961d-6a11e55643cd}, ! Handle
  Concordia Blosser Muni Ap Ann Clg .4% Condns DB=>MWB, ! Name
  37.5,                                   ! Maximum Dry-Bulb Temperature {C}
  12.3,                                   ! Daily Dry-Bulb Temperature Range {deltaC}
  23,                                     ! Humidity Indicating Conditions at Maximum Dry-Bulb {BasedOnField A3}
  96058,                                  ! Barometric Pressure {Pa}
  6.6,                                    ! Wind Speed {m/s}
  180,                                    ! Wind Direction {deg}
  0,                                      ! Sky Clearness
  0,                                      ! Rain Indicator
  0,                                      ! Snow Indicator
  21,                                     ! Day of Month
  7,                                      ! Month
  SummerDesignDay,                        ! Day Type
  0,                                      ! Daylight Saving Time Indicator
  Wetbulb,                                ! Humidity Indicating Type
  ,                                       ! Humidity Indicating Day Schedule Name
  DefaultMultipliers,                     ! Dry-Bulb Temperature Range Modifier Type
  ,                                       ! Dry-Bulb Temperature Range Modifier Schedule Name
  ASHRAETau,                              ! Solar Model Indicator
  ,                                       ! Beam Solar Day Schedule Name
  ,                                       ! Diffuse Solar Day Schedule Name
  0.417,                                  ! ASHRAE Taub {dimensionless}
  2.193;                                  ! ASHRAE Taud {dimensionless}

OS:ComponentData,
  {9ab8367e-e522-4382-843e-473eb9e23e46}, ! Handle
  Component Data 1,                       ! Name
  {cb2825ef-cd35-473e-a7de-38b15822878d}, ! UUID
  {8d3d43d0-c912-4f15-8984-40b7b1ddb9ec}, ! Version UUID
  1366307500,                             ! Creation Timestamp
  1366307500,                             ! Version Timestamp
  {91698f9d-c0cb-43b9-961d-6a11e55643cd}; ! Name of Object 1

