
OS:Version,
  {6e3bb1cf-55e1-411e-9d50-034cad9db1cb}, ! Handle
  0.9.3;                                  ! Version Identifier

OS:SizingPeriod:DesignDay,
  {9603eb82-9df7-41d8-a345-56b780051597}, ! Handle
  Kake Seaplane Base Ann Clg 2% Condns DP=>MDB, ! Name
  15.1,                                   ! Maximum Dry-Bulb Temperature {C}
  6.3,                                    ! Daily Dry-Bulb Temperature Range {deltaC}
  12,                                     ! Humidity Indicating Conditions at Maximum Dry-Bulb {BasedOnField A3}
  101325,                                 ! Barometric Pressure {Pa}
  2.6,                                    ! Wind Speed {m/s}
  280,                                    ! Wind Direction {deg}
  0,                                      ! Sky Clearness
  0,                                      ! Rain Indicator
  0,                                      ! Snow Indicator
  21,                                     ! Day of Month
  7,                                      ! Month
  SummerDesignDay,                        ! Day Type
  0,                                      ! Daylight Saving Time Indicator
  Dewpoint,                               ! Humidity Indicating Type
  ,                                       ! Humidity Indicating Day Schedule Name
  DefaultMultipliers,                     ! Dry-Bulb Temperature Range Modifier Type
  ,                                       ! Dry-Bulb Temperature Range Modifier Schedule Name
  ASHRAETau,                              ! Solar Model Indicator
  ,                                       ! Beam Solar Day Schedule Name
  ,                                       ! Diffuse Solar Day Schedule Name
  0.386,                                  ! ASHRAE Taub {dimensionless}
  2.213;                                  ! ASHRAE Taud {dimensionless}

OS:ComponentData,
  {7359e7bf-6d34-4529-9d5f-c38cf87fd42f}, ! Handle
  Component Data 1,                       ! Name
  {60762941-948f-49d8-b61b-23e89abb6219}, ! UUID
  {2d734bf0-4e9c-47c4-8cf0-935179edc149}, ! Version UUID
  1366305345,                             ! Creation Timestamp
  1366305345,                             ! Version Timestamp
  {9603eb82-9df7-41d8-a345-56b780051597}; ! Name of Object 1

