
OS:Version,
  {7752b96f-9ecf-4fc1-b6fd-47587a009771}, ! Handle
  0.9.3;                                  ! Version Identifier

OS:SizingPeriod:DesignDay,
  {518332e9-2a86-498f-b016-42e2fd6dfdfa}, ! Handle
  ELKINS Ann Clg 2% Condns DB=>MWB,       ! Name
  27.8,                                   ! Maximum Dry-Bulb Temperature {C}
  12,                                     ! Daily Dry-Bulb Temperature Range {deltaC}
  20.4,                                   ! Humidity Indicating Conditions at Maximum Dry-Bulb {BasedOnField A3}
  94390,                                  ! Barometric Pressure {Pa}
  3.2,                                    ! Wind Speed {m/s}
  300,                                    ! Wind Direction {deg}
  0,                                      ! Sky Clearness
  0,                                      ! Rain Indicator
  0,                                      ! Snow Indicator
  21,                                     ! Day of Month
  7,                                      ! Month
  SummerDesignDay,                        ! Day Type
  0,                                      ! Daylight Saving Time Indicator
  Wetbulb,                                ! Humidity Indicating Type
  ,                                       ! Humidity Indicating Day Schedule Name
  DefaultMultipliers,                     ! Dry-Bulb Temperature Range Modifier Type
  ,                                       ! Dry-Bulb Temperature Range Modifier Schedule Name
  ASHRAETau,                              ! Solar Model Indicator
  ,                                       ! Beam Solar Day Schedule Name
  ,                                       ! Diffuse Solar Day Schedule Name
  0.489,                                  ! ASHRAE Taub {dimensionless}
  1.911;                                  ! ASHRAE Taud {dimensionless}

OS:ComponentData,
  {663d2902-808f-491d-9f72-da646e9755f0}, ! Handle
  Component Data 1,                       ! Name
  {f239fc2b-5bb1-4974-9bec-aed725dfda7c}, ! UUID
  {b5d24131-aa27-4dc0-87e9-34d17d08d238}, ! Version UUID
  1366311646,                             ! Creation Timestamp
  1366311646,                             ! Version Timestamp
  {518332e9-2a86-498f-b016-42e2fd6dfdfa}; ! Name of Object 1

