
OS:Version,
  {4523ab05-58c9-4cad-949b-fe5a13ee4851}, ! Handle
  0.9.3;                                  ! Version Identifier

OS:SizingPeriod:DesignDay,
  {9d1fb410-2216-4b58-9291-8044f4596e0d}, ! Handle
  Camarillo  Awos Ann Hum_n 99% Condns DP=>MCDB, ! Name
  16.6,                                   ! Maximum Dry-Bulb Temperature {C}
  0,                                      ! Daily Dry-Bulb Temperature Range {deltaC}
  -9.2,                                   ! Humidity Indicating Conditions at Maximum Dry-Bulb {BasedOnField A3}
  101049,                                 ! Barometric Pressure {Pa}
  1.4,                                    ! Wind Speed {m/s}
  60,                                     ! Wind Direction {deg}
  0,                                      ! Sky Clearness
  0,                                      ! Rain Indicator
  0,                                      ! Snow Indicator
  21,                                     ! Day of Month
  1,                                      ! Month
  WinterDesignDay,                        ! Day Type
  0,                                      ! Daylight Saving Time Indicator
  Dewpoint,                               ! Humidity Indicating Type
  ,                                       ! Humidity Indicating Day Schedule Name
  DefaultMultipliers,                     ! Dry-Bulb Temperature Range Modifier Type
  ,                                       ! Dry-Bulb Temperature Range Modifier Schedule Name
  ASHRAEClearSky;                         ! Solar Model Indicator

OS:ComponentData,
  {661d8db5-e6ba-4742-8c3c-09ba1df00770}, ! Handle
  Component Data 1,                       ! Name
  {84cd0c2f-2204-4720-aef6-28e58fe6a149}, ! UUID
  {36243689-ea56-4cba-ac5d-af4527cd4722}, ! Version UUID
  1366306396,                             ! Creation Timestamp
  1366306396,                             ! Version Timestamp
  {9d1fb410-2216-4b58-9291-8044f4596e0d}; ! Name of Object 1

