
OS:Version,
  {156a18f8-2b30-4ea1-8f3f-8574f78e0c7d}, ! Handle
  0.9.3;                                  ! Version Identifier

OS:SizingPeriod:DesignDay,
  {6a0677e6-79aa-41f5-9f71-235e5bf52c08}, ! Handle
  Laredo AFB Ann Htg Wind 99% Condns WS=>MCDB, ! Name
  17.1,                                   ! Maximum Dry-Bulb Temperature {C}
  0,                                      ! Daily Dry-Bulb Temperature Range {deltaC}
  17.1,                                   ! Humidity Indicating Conditions at Maximum Dry-Bulb {BasedOnField A3}
  99512,                                  ! Barometric Pressure {Pa}
  10.6,                                   ! Wind Speed {m/s}
  0,                                      ! Wind Direction {deg}
  0,                                      ! Sky Clearness
  0,                                      ! Rain Indicator
  0,                                      ! Snow Indicator
  21,                                     ! Day of Month
  1,                                      ! Month
  WinterDesignDay,                        ! Day Type
  0,                                      ! Daylight Saving Time Indicator
  Wetbulb,                                ! Humidity Indicating Type
  ,                                       ! Humidity Indicating Day Schedule Name
  DefaultMultipliers,                     ! Dry-Bulb Temperature Range Modifier Type
  ,                                       ! Dry-Bulb Temperature Range Modifier Schedule Name
  ASHRAEClearSky;                         ! Solar Model Indicator

OS:ComponentData,
  {a88161d8-0a54-42f7-aa2d-bd2dd4bdecc9}, ! Handle
  Component Data 1,                       ! Name
  {4373146e-6fad-47bb-91f1-df180faacca6}, ! UUID
  {ed1c6036-7476-4580-a38c-431007521b89}, ! Version UUID
  1366310779,                             ! Creation Timestamp
  1366310779,                             ! Version Timestamp
  {6a0677e6-79aa-41f5-9f71-235e5bf52c08}; ! Name of Object 1

