
OS:Version,
  {444ce16a-bef4-43ee-b87c-8194bc17a6c6}, ! Handle
  0.9.3;                                  ! Version Identifier

OS:SizingPeriod:DesignDay,
  {7fc588d3-2e11-4141-a040-55b0a64da8a3}, ! Handle
  Dallas Redbird Arpt Ann Clg 2% Condns DP=>MDB, ! Name
  27.4,                                   ! Maximum Dry-Bulb Temperature {C}
  11.2,                                   ! Daily Dry-Bulb Temperature Range {deltaC}
  22.9,                                   ! Humidity Indicating Conditions at Maximum Dry-Bulb {BasedOnField A3}
  98934,                                  ! Barometric Pressure {Pa}
  4.2,                                    ! Wind Speed {m/s}
  150,                                    ! Wind Direction {deg}
  0,                                      ! Sky Clearness
  0,                                      ! Rain Indicator
  0,                                      ! Snow Indicator
  21,                                     ! Day of Month
  8,                                      ! Month
  SummerDesignDay,                        ! Day Type
  0,                                      ! Daylight Saving Time Indicator
  Dewpoint,                               ! Humidity Indicating Type
  ,                                       ! Humidity Indicating Day Schedule Name
  DefaultMultipliers,                     ! Dry-Bulb Temperature Range Modifier Type
  ,                                       ! Dry-Bulb Temperature Range Modifier Schedule Name
  ASHRAETau,                              ! Solar Model Indicator
  ,                                       ! Beam Solar Day Schedule Name
  ,                                       ! Diffuse Solar Day Schedule Name
  0.474,                                  ! ASHRAE Taub {dimensionless}
  2.026;                                  ! ASHRAE Taud {dimensionless}

OS:ComponentData,
  {413ee2f0-60ed-4b8c-b075-0b100a4f7ed7}, ! Handle
  Component Data 1,                       ! Name
  {132c23ca-cf47-4651-b738-1502a9ef4ae0}, ! UUID
  {e8133b37-e7c1-4ace-9cbd-737c68bc1625}, ! Version UUID
  1366310664,                             ! Creation Timestamp
  1366310664,                             ! Version Timestamp
  {7fc588d3-2e11-4141-a040-55b0a64da8a3}; ! Name of Object 1

