
OS:Version,
  {77ace3d1-0d84-45a0-b6fc-38456d44af55}, ! Handle
  0.9.3;                                  ! Version Identifier

OS:SizingPeriod:DesignDay,
  {1eb382f0-c1ab-43c5-b6c1-9079b697eb6d}, ! Handle
  LEXINGTON Ann Clg 1% Condns DB=>MWB,    ! Name
  31.9,                                   ! Maximum Dry-Bulb Temperature {C}
  10.2,                                   ! Daily Dry-Bulb Temperature Range {deltaC}
  23.2,                                   ! Humidity Indicating Conditions at Maximum Dry-Bulb {BasedOnField A3}
  97761,                                  ! Barometric Pressure {Pa}
  3.7,                                    ! Wind Speed {m/s}
  250,                                    ! Wind Direction {deg}
  0,                                      ! Sky Clearness
  0,                                      ! Rain Indicator
  0,                                      ! Snow Indicator
  21,                                     ! Day of Month
  7,                                      ! Month
  SummerDesignDay,                        ! Day Type
  0,                                      ! Daylight Saving Time Indicator
  Wetbulb,                                ! Humidity Indicating Type
  ,                                       ! Humidity Indicating Day Schedule Name
  DefaultMultipliers,                     ! Dry-Bulb Temperature Range Modifier Type
  ,                                       ! Dry-Bulb Temperature Range Modifier Schedule Name
  ASHRAETau,                              ! Solar Model Indicator
  ,                                       ! Beam Solar Day Schedule Name
  ,                                       ! Diffuse Solar Day Schedule Name
  0.503,                                  ! ASHRAE Taub {dimensionless}
  1.885;                                  ! ASHRAE Taud {dimensionless}

OS:ComponentData,
  {663e8b72-1c42-4fe7-a5a6-c5b95da27c24}, ! Handle
  Component Data 1,                       ! Name
  {a6c6a3c0-5912-4a4c-b187-227ebae8096e}, ! UUID
  {eefb4e92-001f-4df4-aa2e-04cb760c3c1b}, ! Version UUID
  1366307656,                             ! Creation Timestamp
  1366307656,                             ! Version Timestamp
  {1eb382f0-c1ab-43c5-b6c1-9079b697eb6d}; ! Name of Object 1

