
OS:Version,
  {4354b2bc-ae66-4de6-bb39-8900d0d7a3f5}, ! Handle
  0.9.3;                                  ! Version Identifier

OS:SizingPeriod:DesignDay,
  {fcb305d8-5756-4e9a-ad0d-ff61a9732cae}, ! Handle
  COVINGTON Ann Clg 1% Condns WB=>MDB,    ! Name
  29.5,                                   ! Maximum Dry-Bulb Temperature {C}
  10.3,                                   ! Daily Dry-Bulb Temperature Range {deltaC}
  24.4,                                   ! Humidity Indicating Conditions at Maximum Dry-Bulb {BasedOnField A3}
  98112,                                  ! Barometric Pressure {Pa}
  4.3,                                    ! Wind Speed {m/s}
  230,                                    ! Wind Direction {deg}
  0,                                      ! Sky Clearness
  0,                                      ! Rain Indicator
  0,                                      ! Snow Indicator
  21,                                     ! Day of Month
  7,                                      ! Month
  SummerDesignDay,                        ! Day Type
  0,                                      ! Daylight Saving Time Indicator
  Wetbulb,                                ! Humidity Indicating Type
  ,                                       ! Humidity Indicating Day Schedule Name
  DefaultMultipliers,                     ! Dry-Bulb Temperature Range Modifier Type
  ,                                       ! Dry-Bulb Temperature Range Modifier Schedule Name
  ASHRAETau,                              ! Solar Model Indicator
  ,                                       ! Beam Solar Day Schedule Name
  ,                                       ! Diffuse Solar Day Schedule Name
  0.493,                                  ! ASHRAE Taub {dimensionless}
  1.911;                                  ! ASHRAE Taud {dimensionless}

OS:ComponentData,
  {f637f675-4052-44ae-9afd-74b6102f174e}, ! Handle
  Component Data 1,                       ! Name
  {0d0db211-e652-42bb-a485-37f7730cd712}, ! UUID
  {c0709899-640d-4f58-8135-af52436f67ab}, ! Version UUID
  1366307625,                             ! Creation Timestamp
  1366307625,                             ! Version Timestamp
  {fcb305d8-5756-4e9a-ad0d-ff61a9732cae}; ! Name of Object 1

