
OS:Version,
  {ce1c2ab7-de37-45c8-9dd5-8c38509d43d9}, ! Handle
  0.9.3;                                  ! Version Identifier

OS:SizingPeriod:DesignDay,
  {508156af-6862-420d-9833-50d8598f7705}, ! Handle
  Estherville Muni Ann Clg 1% Condns DB=>MWB, ! Name
  31.1,                                   ! Maximum Dry-Bulb Temperature {C}
  11,                                     ! Daily Dry-Bulb Temperature Range {deltaC}
  23.1,                                   ! Humidity Indicating Conditions at Maximum Dry-Bulb {BasedOnField A3}
  96600,                                  ! Barometric Pressure {Pa}
  7,                                      ! Wind Speed {m/s}
  180,                                    ! Wind Direction {deg}
  0,                                      ! Sky Clearness
  0,                                      ! Rain Indicator
  0,                                      ! Snow Indicator
  21,                                     ! Day of Month
  7,                                      ! Month
  SummerDesignDay,                        ! Day Type
  0,                                      ! Daylight Saving Time Indicator
  Wetbulb,                                ! Humidity Indicating Type
  ,                                       ! Humidity Indicating Day Schedule Name
  DefaultMultipliers,                     ! Dry-Bulb Temperature Range Modifier Type
  ,                                       ! Dry-Bulb Temperature Range Modifier Schedule Name
  ASHRAETau,                              ! Solar Model Indicator
  ,                                       ! Beam Solar Day Schedule Name
  ,                                       ! Diffuse Solar Day Schedule Name
  0.401,                                  ! ASHRAE Taub {dimensionless}
  2.243;                                  ! ASHRAE Taud {dimensionless}

OS:ComponentData,
  {685e3fe6-1b8e-4240-8df7-8c28aa0945b9}, ! Handle
  Component Data 1,                       ! Name
  {9ff3f1ef-22ab-41d5-8846-0c771867ab3d}, ! UUID
  {6dbed766-9cd0-41ad-b249-18e21cf04030}, ! Version UUID
  1366307189,                             ! Creation Timestamp
  1366307189,                             ! Version Timestamp
  {508156af-6862-420d-9833-50d8598f7705}; ! Name of Object 1

