
OS:Version,
  {98fc8ce4-3582-407a-bccb-3238024fce48}, ! Handle
  0.9.3;                                  ! Version Identifier

OS:SizingPeriod:DesignDay,
  {1d49b134-9b99-493e-9baa-388ed67eb2a2}, ! Handle
  Helena Regional Airport Ann Clg 1% Condns Enth=>MDB, ! Name
  28.3,                                   ! Maximum Dry-Bulb Temperature {C}
  16.1,                                   ! Daily Dry-Bulb Temperature Range {deltaC}
  52400,                                  ! Humidity Indicating Conditions at Maximum Dry-Bulb {BasedOnField A3}
  88069,                                  ! Barometric Pressure {Pa}
  4.9,                                    ! Wind Speed {m/s}
  290,                                    ! Wind Direction {deg}
  0,                                      ! Sky Clearness
  0,                                      ! Rain Indicator
  0,                                      ! Snow Indicator
  21,                                     ! Day of Month
  7,                                      ! Month
  SummerDesignDay,                        ! Day Type
  0,                                      ! Daylight Saving Time Indicator
  Enthalpy,                               ! Humidity Indicating Type
  ,                                       ! Humidity Indicating Day Schedule Name
  DefaultMultipliers,                     ! Dry-Bulb Temperature Range Modifier Type
  ,                                       ! Dry-Bulb Temperature Range Modifier Schedule Name
  ASHRAETau,                              ! Solar Model Indicator
  ,                                       ! Beam Solar Day Schedule Name
  ,                                       ! Diffuse Solar Day Schedule Name
  0.38,                                   ! ASHRAE Taub {dimensionless}
  2.232;                                  ! ASHRAE Taud {dimensionless}

OS:ComponentData,
  {80835300-fa19-48bf-a5c1-ff9725477998}, ! Handle
  Component Data 1,                       ! Name
  {8a9a2032-012c-4e83-ab10-68905a6dea53}, ! UUID
  {90baa9e1-d52d-4ce3-a664-04ea3c392357}, ! Version UUID
  1366308799,                             ! Creation Timestamp
  1366308799,                             ! Version Timestamp
  {1d49b134-9b99-493e-9baa-388ed67eb2a2}; ! Name of Object 1

