
OS:Version,
  {fcf701b9-b08e-4e67-8060-cc96f8879a0e}, ! Handle
  0.9.3;                                  ! Version Identifier

OS:SizingPeriod:DesignDay,
  {e5536fae-7db7-4b0d-8932-7ec886efd921}, ! Handle
  Greer/Greenville Ann Clg .4% Condns Enth=>MDB, ! Name
  31.2,                                   ! Maximum Dry-Bulb Temperature {C}
  10.6,                                   ! Daily Dry-Bulb Temperature Range {deltaC}
  77200,                                  ! Humidity Indicating Conditions at Maximum Dry-Bulb {BasedOnField A3}
  97819,                                  ! Barometric Pressure {Pa}
  3.6,                                    ! Wind Speed {m/s}
  230,                                    ! Wind Direction {deg}
  0,                                      ! Sky Clearness
  0,                                      ! Rain Indicator
  0,                                      ! Snow Indicator
  21,                                     ! Day of Month
  7,                                      ! Month
  SummerDesignDay,                        ! Day Type
  0,                                      ! Daylight Saving Time Indicator
  Enthalpy,                               ! Humidity Indicating Type
  ,                                       ! Humidity Indicating Day Schedule Name
  DefaultMultipliers,                     ! Dry-Bulb Temperature Range Modifier Type
  ,                                       ! Dry-Bulb Temperature Range Modifier Schedule Name
  ASHRAETau,                              ! Solar Model Indicator
  ,                                       ! Beam Solar Day Schedule Name
  ,                                       ! Diffuse Solar Day Schedule Name
  0.545,                                  ! ASHRAE Taub {dimensionless}
  1.796;                                  ! ASHRAE Taud {dimensionless}

OS:ComponentData,
  {83a4c8d7-4340-4e23-8f56-2f87dd61c69c}, ! Handle
  Component Data 1,                       ! Name
  {2fc5c3ed-b897-4db1-86d6-94c0d97ddab8}, ! UUID
  {92503653-01eb-4d13-b408-6a66ebc5e0eb}, ! Version UUID
  1366310364,                             ! Creation Timestamp
  1366310364,                             ! Version Timestamp
  {e5536fae-7db7-4b0d-8932-7ec886efd921}; ! Name of Object 1

