
OS:Version,
  {27fe12e8-6815-4c3f-af17-f87e012c5000}, ! Handle
  0.9.3;                                  ! Version Identifier

OS:SizingPeriod:DesignDay,
  {94b9c687-d437-485d-8f8c-3c8c41972b60}, ! Handle
  Kalamazoo Battle Cr Ann Htg Wind 99% Condns WS=>MCDB, ! Name
  -2.4,                                   ! Maximum Dry-Bulb Temperature {C}
  0,                                      ! Daily Dry-Bulb Temperature Range {deltaC}
  -2.4,                                   ! Humidity Indicating Conditions at Maximum Dry-Bulb {BasedOnField A3}
  98088,                                  ! Barometric Pressure {Pa}
  9.4,                                    ! Wind Speed {m/s}
  220,                                    ! Wind Direction {deg}
  0,                                      ! Sky Clearness
  0,                                      ! Rain Indicator
  0,                                      ! Snow Indicator
  21,                                     ! Day of Month
  1,                                      ! Month
  WinterDesignDay,                        ! Day Type
  0,                                      ! Daylight Saving Time Indicator
  Wetbulb,                                ! Humidity Indicating Type
  ,                                       ! Humidity Indicating Day Schedule Name
  DefaultMultipliers,                     ! Dry-Bulb Temperature Range Modifier Type
  ,                                       ! Dry-Bulb Temperature Range Modifier Schedule Name
  ASHRAEClearSky;                         ! Solar Model Indicator

OS:ComponentData,
  {1a9f6669-c083-4220-a841-4823c37514fd}, ! Handle
  Component Data 1,                       ! Name
  {0f5fc540-42d4-49dd-bb35-7d44bfc63e5a}, ! UUID
  {c27388ec-bcd7-4341-aa72-b38110457a25}, ! Version UUID
  1366308048,                             ! Creation Timestamp
  1366308048,                             ! Version Timestamp
  {94b9c687-d437-485d-8f8c-3c8c41972b60}; ! Name of Object 1

