
OS:Version,
  {539bade5-06bc-4c71-a66b-10b28e4c9daa}, ! Handle
  0.9.3;                                  ! Version Identifier

OS:SizingPeriod:DesignDay,
  {3668d708-fe3b-49a5-9f21-d6a45f9ea84f}, ! Handle
  Albuquerque Ann Hum_n 99% Condns DP=>MCDB, ! Name
  3.7,                                    ! Maximum Dry-Bulb Temperature {C}
  0,                                      ! Daily Dry-Bulb Temperature Range {deltaC}
  -17.3,                                  ! Humidity Indicating Conditions at Maximum Dry-Bulb {BasedOnField A3}
  83318,                                  ! Barometric Pressure {Pa}
  3.2,                                    ! Wind Speed {m/s}
  0,                                      ! Wind Direction {deg}
  0,                                      ! Sky Clearness
  0,                                      ! Rain Indicator
  0,                                      ! Snow Indicator
  21,                                     ! Day of Month
  12,                                     ! Month
  WinterDesignDay,                        ! Day Type
  0,                                      ! Daylight Saving Time Indicator
  Dewpoint,                               ! Humidity Indicating Type
  ,                                       ! Humidity Indicating Day Schedule Name
  DefaultMultipliers,                     ! Dry-Bulb Temperature Range Modifier Type
  ,                                       ! Dry-Bulb Temperature Range Modifier Schedule Name
  ASHRAEClearSky;                         ! Solar Model Indicator

OS:ComponentData,
  {0348f224-1b4e-43ad-9800-7e09fb40c53b}, ! Handle
  Component Data 1,                       ! Name
  {6ddb22bd-7d38-4dc7-85d9-f02fc5640788}, ! UUID
  {c1981d7d-4d96-426c-ae25-ecb5fd871118}, ! Version UUID
  1366309363,                             ! Creation Timestamp
  1366309363,                             ! Version Timestamp
  {3668d708-fe3b-49a5-9f21-d6a45f9ea84f}; ! Name of Object 1

