
OS:Version,
  {c81aa1c0-9ede-4d7b-8ece-f29077bdce06}, ! Handle
  0.9.3;                                  ! Version Identifier

OS:SizingPeriod:DesignDay,
  {bbde1d5f-9193-4214-a2fb-5cdea7e91774}, ! Handle
  Hilo International Ap Ann Clg 1% Condns DP=>MDB, ! Name
  25.9,                                   ! Maximum Dry-Bulb Temperature {C}
  7,                                      ! Daily Dry-Bulb Temperature Range {deltaC}
  23.4,                                   ! Humidity Indicating Conditions at Maximum Dry-Bulb {BasedOnField A3}
  101217,                                 ! Barometric Pressure {Pa}
  4.8,                                    ! Wind Speed {m/s}
  90,                                     ! Wind Direction {deg}
  0,                                      ! Sky Clearness
  0,                                      ! Rain Indicator
  0,                                      ! Snow Indicator
  21,                                     ! Day of Month
  8,                                      ! Month
  SummerDesignDay,                        ! Day Type
  0,                                      ! Daylight Saving Time Indicator
  Dewpoint,                               ! Humidity Indicating Type
  ,                                       ! Humidity Indicating Day Schedule Name
  DefaultMultipliers,                     ! Dry-Bulb Temperature Range Modifier Type
  ,                                       ! Dry-Bulb Temperature Range Modifier Schedule Name
  ASHRAETau,                              ! Solar Model Indicator
  ,                                       ! Beam Solar Day Schedule Name
  ,                                       ! Diffuse Solar Day Schedule Name
  0.411,                                  ! ASHRAE Taub {dimensionless}
  2.427;                                  ! ASHRAE Taud {dimensionless}

OS:ComponentData,
  {facafca2-715a-4bd8-8639-741577cdff3d}, ! Handle
  Component Data 1,                       ! Name
  {70dd2de1-35c7-4765-8a0e-5a53e47b38fd}, ! UUID
  {10a0a399-3848-4668-90f3-f91bf570580c}, ! Version UUID
  1366307085,                             ! Creation Timestamp
  1366307085,                             ! Version Timestamp
  {bbde1d5f-9193-4214-a2fb-5cdea7e91774}; ! Name of Object 1

