
OS:Version,
  {b278bb72-cb6b-4f40-aad5-c9a6892ce59d}, ! Handle
  0.9.3;                                  ! Version Identifier

OS:SizingPeriod:DesignDay,
  {697bd7f9-6ab3-4d7b-8f6e-2b70ffeeb92b}, ! Handle
  Cahokia St  Louis Ann Htg 99.6% Condns DB, ! Name
  -12.5,                                  ! Maximum Dry-Bulb Temperature {C}
  0,                                      ! Daily Dry-Bulb Temperature Range {deltaC}
  -12.5,                                  ! Humidity Indicating Conditions at Maximum Dry-Bulb {BasedOnField A3}
  99820,                                  ! Barometric Pressure {Pa}
  3.7,                                    ! Wind Speed {m/s}
  290,                                    ! Wind Direction {deg}
  0,                                      ! Sky Clearness
  0,                                      ! Rain Indicator
  0,                                      ! Snow Indicator
  21,                                     ! Day of Month
  1,                                      ! Month
  WinterDesignDay,                        ! Day Type
  0,                                      ! Daylight Saving Time Indicator
  Wetbulb,                                ! Humidity Indicating Type
  ,                                       ! Humidity Indicating Day Schedule Name
  DefaultMultipliers,                     ! Dry-Bulb Temperature Range Modifier Type
  ,                                       ! Dry-Bulb Temperature Range Modifier Schedule Name
  ASHRAEClearSky;                         ! Solar Model Indicator

OS:ComponentData,
  {95c6d132-9b2d-4480-96d3-22ca66d1cfd1}, ! Handle
  Component Data 1,                       ! Name
  {803b896c-d6e7-48d3-8fe7-ea8f0a23c3c5}, ! UUID
  {94f5f41b-1a84-41dd-a6ea-02b231671a48}, ! Version UUID
  1366307326,                             ! Creation Timestamp
  1366307326,                             ! Version Timestamp
  {697bd7f9-6ab3-4d7b-8f6e-2b70ffeeb92b}; ! Name of Object 1

