
OS:Version,
  {dd969e62-d448-4bce-bc40-e969d192b20e}, ! Handle
  0.9.3;                                  ! Version Identifier

OS:SizingPeriod:DesignDay,
  {87f6d9a4-49ca-4450-8d21-7bb002505971}, ! Handle
  Green Bay Austin Straubel Int Ann Clg .4% Condns DP=>MDB, ! Name
  27.5,                                   ! Maximum Dry-Bulb Temperature {C}
  11.3,                                   ! Daily Dry-Bulb Temperature Range {deltaC}
  23.2,                                   ! Humidity Indicating Conditions at Maximum Dry-Bulb {BasedOnField A3}
  98839,                                  ! Barometric Pressure {Pa}
  5.1,                                    ! Wind Speed {m/s}
  200,                                    ! Wind Direction {deg}
  0,                                      ! Sky Clearness
  0,                                      ! Rain Indicator
  0,                                      ! Snow Indicator
  21,                                     ! Day of Month
  7,                                      ! Month
  SummerDesignDay,                        ! Day Type
  0,                                      ! Daylight Saving Time Indicator
  Dewpoint,                               ! Humidity Indicating Type
  ,                                       ! Humidity Indicating Day Schedule Name
  DefaultMultipliers,                     ! Dry-Bulb Temperature Range Modifier Type
  ,                                       ! Dry-Bulb Temperature Range Modifier Schedule Name
  ASHRAETau,                              ! Solar Model Indicator
  ,                                       ! Beam Solar Day Schedule Name
  ,                                       ! Diffuse Solar Day Schedule Name
  0.432,                                  ! ASHRAE Taub {dimensionless}
  2.118;                                  ! ASHRAE Taud {dimensionless}

OS:ComponentData,
  {e67d0248-4d5e-47ae-999c-3d57f4de086f}, ! Handle
  Component Data 1,                       ! Name
  {649474a0-49ad-44cd-b54c-20dc058cab8c}, ! UUID
  {1361c612-44e1-4ff1-acdb-7d949721d6ca}, ! Version UUID
  1366311491,                             ! Creation Timestamp
  1366311491,                             ! Version Timestamp
  {87f6d9a4-49ca-4450-8d21-7bb002505971}; ! Name of Object 1

