
OS:Version,
  {0c8e5591-4035-4154-a600-90e6a33fcee3}, ! Handle
  0.9.3;                                  ! Version Identifier

OS:SizingPeriod:DesignDay,
  {bc491b1e-5f50-4efd-891b-8d8c0ebcb98e}, ! Handle
  Albany County Ap Ann Clg 1% Condns WB=>MDB, ! Name
  27.9,                                   ! Maximum Dry-Bulb Temperature {C}
  11.1,                                   ! Daily Dry-Bulb Temperature Range {deltaC}
  23.4,                                   ! Humidity Indicating Conditions at Maximum Dry-Bulb {BasedOnField A3}
  100320,                                 ! Barometric Pressure {Pa}
  4.4,                                    ! Wind Speed {m/s}
  180,                                    ! Wind Direction {deg}
  0,                                      ! Sky Clearness
  0,                                      ! Rain Indicator
  0,                                      ! Snow Indicator
  21,                                     ! Day of Month
  7,                                      ! Month
  SummerDesignDay,                        ! Day Type
  0,                                      ! Daylight Saving Time Indicator
  Wetbulb,                                ! Humidity Indicating Type
  ,                                       ! Humidity Indicating Day Schedule Name
  DefaultMultipliers,                     ! Dry-Bulb Temperature Range Modifier Type
  ,                                       ! Dry-Bulb Temperature Range Modifier Schedule Name
  ASHRAETau,                              ! Solar Model Indicator
  ,                                       ! Beam Solar Day Schedule Name
  ,                                       ! Diffuse Solar Day Schedule Name
  0.49,                                   ! ASHRAE Taub {dimensionless}
  1.923;                                  ! ASHRAE Taud {dimensionless}

OS:ComponentData,
  {09f79a40-ee6b-4691-af57-53bea71974ed}, ! Handle
  Component Data 1,                       ! Name
  {88ebdf56-63b8-48bb-aad3-0b3645a77592}, ! UUID
  {187ea37a-ef2a-477e-8bd5-92c2fd7e1582}, ! Version UUID
  1366309585,                             ! Creation Timestamp
  1366309585,                             ! Version Timestamp
  {bc491b1e-5f50-4efd-891b-8d8c0ebcb98e}; ! Name of Object 1

