
OS:Version,
  {54f0f9cb-ef58-4515-82dd-2958a385df3e}, ! Handle
  0.9.3;                                  ! Version Identifier

OS:SizingPeriod:DesignDay,
  {2aacc13e-0e7f-425e-87a1-347ca6831920}, ! Handle
  Amarillo International Ap  Ca Ann Hum_n 99% Condns DP=>MCDB, ! Name
  -3.6,                                   ! Maximum Dry-Bulb Temperature {C}
  0,                                      ! Daily Dry-Bulb Temperature Range {deltaC}
  -16.4,                                  ! Humidity Indicating Conditions at Maximum Dry-Bulb {BasedOnField A3}
  89136,                                  ! Barometric Pressure {Pa}
  5.1,                                    ! Wind Speed {m/s}
  20,                                     ! Wind Direction {deg}
  0,                                      ! Sky Clearness
  0,                                      ! Rain Indicator
  0,                                      ! Snow Indicator
  21,                                     ! Day of Month
  12,                                     ! Month
  WinterDesignDay,                        ! Day Type
  0,                                      ! Daylight Saving Time Indicator
  Dewpoint,                               ! Humidity Indicating Type
  ,                                       ! Humidity Indicating Day Schedule Name
  DefaultMultipliers,                     ! Dry-Bulb Temperature Range Modifier Type
  ,                                       ! Dry-Bulb Temperature Range Modifier Schedule Name
  ASHRAEClearSky;                         ! Solar Model Indicator

OS:ComponentData,
  {a07522fa-4d52-4018-ae17-a5e525fe2886}, ! Handle
  Component Data 1,                       ! Name
  {37e7489c-4a0a-4d93-8e37-6c056258c630}, ! UUID
  {44621ec0-1db6-4dcc-96f6-638db5d6f20d}, ! Version UUID
  1366310574,                             ! Creation Timestamp
  1366310574,                             ! Version Timestamp
  {2aacc13e-0e7f-425e-87a1-347ca6831920}; ! Name of Object 1

