
OS:Version,
  {086e5804-4336-41ac-9488-1546340d3a68}, ! Handle
  0.9.3;                                  ! Version Identifier

OS:SizingPeriod:DesignDay,
  {e251721e-5bcb-4bdb-96aa-b32143e16dc9}, ! Handle
  Bettles Field Ann Clg 2% Condns Enth=>MDB, ! Name
  20.6,                                   ! Maximum Dry-Bulb Temperature {C}
  10.6,                                   ! Daily Dry-Bulb Temperature Range {deltaC}
  42400,                                  ! Humidity Indicating Conditions at Maximum Dry-Bulb {BasedOnField A3}
  98992,                                  ! Barometric Pressure {Pa}
  3.3,                                    ! Wind Speed {m/s}
  220,                                    ! Wind Direction {deg}
  0,                                      ! Sky Clearness
  0,                                      ! Rain Indicator
  0,                                      ! Snow Indicator
  21,                                     ! Day of Month
  7,                                      ! Month
  SummerDesignDay,                        ! Day Type
  0,                                      ! Daylight Saving Time Indicator
  Enthalpy,                               ! Humidity Indicating Type
  ,                                       ! Humidity Indicating Day Schedule Name
  DefaultMultipliers,                     ! Dry-Bulb Temperature Range Modifier Type
  ,                                       ! Dry-Bulb Temperature Range Modifier Schedule Name
  ASHRAETau,                              ! Solar Model Indicator
  ,                                       ! Beam Solar Day Schedule Name
  ,                                       ! Diffuse Solar Day Schedule Name
  0.389,                                  ! ASHRAE Taub {dimensionless}
  2.131;                                  ! ASHRAE Taud {dimensionless}

OS:ComponentData,
  {5a4f916d-2d75-4ff4-b6e9-580f85ff112a}, ! Handle
  Component Data 1,                       ! Name
  {5af60c84-ae7c-4a68-9a4b-115f6be455cd}, ! UUID
  {9b70b8ed-b245-4657-aa51-9315c61e06d6}, ! Version UUID
  1366304768,                             ! Creation Timestamp
  1366304768,                             ! Version Timestamp
  {e251721e-5bcb-4bdb-96aa-b32143e16dc9}; ! Name of Object 1

