
OS:Version,
  {e0fda1b2-5a24-4d91-ab0a-b7563bfbf844}, ! Handle
  0.9.3;                                  ! Version Identifier

OS:SizingPeriod:DesignDay,
  {4c1e5f09-8fb0-4f82-a2c4-bcc827de0ea3}, ! Handle
  Glendive Awos Ann Clg 2% Condns DP=>MDB, ! Name
  23.2,                                   ! Maximum Dry-Bulb Temperature {C}
  14.4,                                   ! Daily Dry-Bulb Temperature Range {deltaC}
  15.3,                                   ! Humidity Indicating Conditions at Maximum Dry-Bulb {BasedOnField A3}
  92645,                                  ! Barometric Pressure {Pa}
  4.9,                                    ! Wind Speed {m/s}
  150,                                    ! Wind Direction {deg}
  0,                                      ! Sky Clearness
  0,                                      ! Rain Indicator
  0,                                      ! Snow Indicator
  21,                                     ! Day of Month
  7,                                      ! Month
  SummerDesignDay,                        ! Day Type
  0,                                      ! Daylight Saving Time Indicator
  Dewpoint,                               ! Humidity Indicating Type
  ,                                       ! Humidity Indicating Day Schedule Name
  DefaultMultipliers,                     ! Dry-Bulb Temperature Range Modifier Type
  ,                                       ! Dry-Bulb Temperature Range Modifier Schedule Name
  ASHRAETau,                              ! Solar Model Indicator
  ,                                       ! Beam Solar Day Schedule Name
  ,                                       ! Diffuse Solar Day Schedule Name
  0.397,                                  ! ASHRAE Taub {dimensionless}
  2.163;                                  ! ASHRAE Taud {dimensionless}

OS:ComponentData,
  {52dd5ad7-e38a-4494-bfdd-2acfe79d6409}, ! Handle
  Component Data 1,                       ! Name
  {934961ce-455f-4a60-9dec-d71706e1aa49}, ! UUID
  {38910a1c-a7ef-4d72-bf74-0eede796b224}, ! Version UUID
  1366308769,                             ! Creation Timestamp
  1366308769,                             ! Version Timestamp
  {4c1e5f09-8fb0-4f82-a2c4-bcc827de0ea3}; ! Name of Object 1

