
OS:Version,
  {2a1dfa94-59f1-486c-b075-4e9adbcc27fb}, ! Handle
  0.9.3;                                  ! Version Identifier

OS:SizingPeriod:DesignDay,
  {338f66b0-dbb4-4407-b5fe-1977ca21854f}, ! Handle
  BOSTON Ann Htg Wind 99% Condns WS=>MCDB, ! Name
  -0.3,                                   ! Maximum Dry-Bulb Temperature {C}
  0,                                      ! Daily Dry-Bulb Temperature Range {deltaC}
  -0.3,                                   ! Humidity Indicating Conditions at Maximum Dry-Bulb {BasedOnField A3}
  101265,                                 ! Barometric Pressure {Pa}
  12.6,                                   ! Wind Speed {m/s}
  320,                                    ! Wind Direction {deg}
  0,                                      ! Sky Clearness
  0,                                      ! Rain Indicator
  0,                                      ! Snow Indicator
  21,                                     ! Day of Month
  1,                                      ! Month
  WinterDesignDay,                        ! Day Type
  0,                                      ! Daylight Saving Time Indicator
  Wetbulb,                                ! Humidity Indicating Type
  ,                                       ! Humidity Indicating Day Schedule Name
  DefaultMultipliers,                     ! Dry-Bulb Temperature Range Modifier Type
  ,                                       ! Dry-Bulb Temperature Range Modifier Schedule Name
  ASHRAEClearSky;                         ! Solar Model Indicator

OS:ComponentData,
  {8259a74d-1dc6-4d6b-827a-bc6a46a62a4f}, ! Handle
  Component Data 1,                       ! Name
  {54e15ca5-76e5-4c9f-9d69-b3407878b83c}, ! UUID
  {12c43d6e-dca3-4c94-8c20-e2a1abd9b42b}, ! Version UUID
  1366307781,                             ! Creation Timestamp
  1366307781,                             ! Version Timestamp
  {338f66b0-dbb4-4407-b5fe-1977ca21854f}; ! Name of Object 1

