
OS:Version,
  {f724ce87-83a0-46b1-8d23-807942a3da00}, ! Handle
  0.9.3;                                  ! Version Identifier

OS:SizingPeriod:DesignDay,
  {4fadb7fc-7be9-44cf-b92b-0a279f29e121}, ! Handle
  Chippewa Co Intl Ann Hum_n 99% Condns DP=>MCDB, ! Name
  -19.1,                                  ! Maximum Dry-Bulb Temperature {C}
  0,                                      ! Daily Dry-Bulb Temperature Range {deltaC}
  -27.7,                                  ! Humidity Indicating Conditions at Maximum Dry-Bulb {BasedOnField A3}
  98358,                                  ! Barometric Pressure {Pa}
  2.7,                                    ! Wind Speed {m/s}
  80,                                     ! Wind Direction {deg}
  0,                                      ! Sky Clearness
  0,                                      ! Rain Indicator
  0,                                      ! Snow Indicator
  21,                                     ! Day of Month
  1,                                      ! Month
  WinterDesignDay,                        ! Day Type
  0,                                      ! Daylight Saving Time Indicator
  Dewpoint,                               ! Humidity Indicating Type
  ,                                       ! Humidity Indicating Day Schedule Name
  DefaultMultipliers,                     ! Dry-Bulb Temperature Range Modifier Type
  ,                                       ! Dry-Bulb Temperature Range Modifier Schedule Name
  ASHRAEClearSky;                         ! Solar Model Indicator

OS:ComponentData,
  {8d3edbbf-9924-40f9-87f2-f927032591bf}, ! Handle
  Component Data 1,                       ! Name
  {da4af492-88d2-46c5-b8b5-76e413f293a1}, ! UUID
  {e722cb1d-3144-46d5-a8e6-f4db42929107}, ! Version UUID
  1366307968,                             ! Creation Timestamp
  1366307968,                             ! Version Timestamp
  {4fadb7fc-7be9-44cf-b92b-0a279f29e121}; ! Name of Object 1

