
OS:Version,
  {df2dd0b0-2a66-47c5-a352-515fcbe6a462}, ! Handle
  0.9.3;                                  ! Version Identifier

OS:SizingPeriod:DesignDay,
  {9b0c50fc-b7e7-423a-9eea-04fcbbf61196}, ! Handle
  Birmingham Municipal Ap Ann Clg .4% Condns WB=>MDB, ! Name
  31.3,                                   ! Maximum Dry-Bulb Temperature {C}
  10.3,                                   ! Daily Dry-Bulb Temperature Range {deltaC}
  25.8,                                   ! Humidity Indicating Conditions at Maximum Dry-Bulb {BasedOnField A3}
  99075,                                  ! Barometric Pressure {Pa}
  3.5,                                    ! Wind Speed {m/s}
  330,                                    ! Wind Direction {deg}
  0,                                      ! Sky Clearness
  0,                                      ! Rain Indicator
  0,                                      ! Snow Indicator
  21,                                     ! Day of Month
  7,                                      ! Month
  SummerDesignDay,                        ! Day Type
  0,                                      ! Daylight Saving Time Indicator
  Wetbulb,                                ! Humidity Indicating Type
  ,                                       ! Humidity Indicating Day Schedule Name
  DefaultMultipliers,                     ! Dry-Bulb Temperature Range Modifier Type
  ,                                       ! Dry-Bulb Temperature Range Modifier Schedule Name
  ASHRAETau,                              ! Solar Model Indicator
  ,                                       ! Beam Solar Day Schedule Name
  ,                                       ! Diffuse Solar Day Schedule Name
  0.583,                                  ! ASHRAE Taub {dimensionless}
  1.723;                                  ! ASHRAE Taud {dimensionless}

OS:ComponentData,
  {5ae0d7ae-a603-4a08-8866-01bf72a511e4}, ! Handle
  Component Data 1,                       ! Name
  {2ff1fdfb-a58f-4de5-8d00-94e561d33df5}, ! UUID
  {b7d2280d-5dab-4830-8f02-6ff692917796}, ! Version UUID
  1366305649,                             ! Creation Timestamp
  1366305649,                             ! Version Timestamp
  {9b0c50fc-b7e7-423a-9eea-04fcbbf61196}; ! Name of Object 1

