
OS:Version,
  {9ebd0346-5e75-4cb1-bf14-85f5ec426258}, ! Handle
  0.9.3;                                  ! Version Identifier

OS:SizingPeriod:DesignDay,
  {27e4f0d8-15af-446a-9f72-91c6781d31df}, ! Handle
  Leesburg Godfrey Ann Hum_n 99% Condns DP=>MCDB, ! Name
  -3.7,                                   ! Maximum Dry-Bulb Temperature {C}
  0,                                      ! Daily Dry-Bulb Temperature Range {deltaC}
  -17.7,                                  ! Humidity Indicating Conditions at Maximum Dry-Bulb {BasedOnField A3}
  99904,                                  ! Barometric Pressure {Pa}
  2.9,                                    ! Wind Speed {m/s}
  330,                                    ! Wind Direction {deg}
  0,                                      ! Sky Clearness
  0,                                      ! Rain Indicator
  0,                                      ! Snow Indicator
  21,                                     ! Day of Month
  1,                                      ! Month
  WinterDesignDay,                        ! Day Type
  0,                                      ! Daylight Saving Time Indicator
  Dewpoint,                               ! Humidity Indicating Type
  ,                                       ! Humidity Indicating Day Schedule Name
  DefaultMultipliers,                     ! Dry-Bulb Temperature Range Modifier Type
  ,                                       ! Dry-Bulb Temperature Range Modifier Schedule Name
  ASHRAEClearSky;                         ! Solar Model Indicator

OS:ComponentData,
  {2be42370-0416-4164-80f4-efc0a7ab4a2c}, ! Handle
  Component Data 1,                       ! Name
  {13d6d5db-be9a-49d9-ae23-401911f52f66}, ! UUID
  {c23d23ef-eedf-4834-ba73-5f6cdcef69c6}, ! Version UUID
  1366311076,                             ! Creation Timestamp
  1366311076,                             ! Version Timestamp
  {27e4f0d8-15af-446a-9f72-91c6781d31df}; ! Name of Object 1

