
OS:Version,
  {1ed8bf0a-5c4f-43b2-9776-3298626b8dd3}, ! Handle
  0.9.3;                                  ! Version Identifier

OS:SizingPeriod:DesignDay,
  {1e61263f-1f44-407e-8ca4-120c57ef9eda}, ! Handle
  KOTZEBUE Ann Clg .4% Condns Enth=>MDB,  ! Name
  19,                                     ! Maximum Dry-Bulb Temperature {C}
  4.9,                                    ! Daily Dry-Bulb Temperature Range {deltaC}
  44600,                                  ! Humidity Indicating Conditions at Maximum Dry-Bulb {BasedOnField A3}
  101265,                                 ! Barometric Pressure {Pa}
  4.7,                                    ! Wind Speed {m/s}
  300,                                    ! Wind Direction {deg}
  0,                                      ! Sky Clearness
  0,                                      ! Rain Indicator
  0,                                      ! Snow Indicator
  21,                                     ! Day of Month
  7,                                      ! Month
  SummerDesignDay,                        ! Day Type
  0,                                      ! Daylight Saving Time Indicator
  Enthalpy,                               ! Humidity Indicating Type
  ,                                       ! Humidity Indicating Day Schedule Name
  DefaultMultipliers,                     ! Dry-Bulb Temperature Range Modifier Type
  ,                                       ! Dry-Bulb Temperature Range Modifier Schedule Name
  ASHRAETau,                              ! Solar Model Indicator
  ,                                       ! Beam Solar Day Schedule Name
  ,                                       ! Diffuse Solar Day Schedule Name
  0.374,                                  ! ASHRAE Taub {dimensionless}
  2.244;                                  ! ASHRAE Taud {dimensionless}

OS:ComponentData,
  {1774b689-b9e3-409c-8e14-5dfd1dedf62d}, ! Handle
  Component Data 1,                       ! Name
  {bc680a93-5bc1-449c-aa4a-cb6f5c8335e8}, ! UUID
  {c37ba867-d149-44c8-bde5-ab517e39403a}, ! Version UUID
  1366305395,                             ! Creation Timestamp
  1366305395,                             ! Version Timestamp
  {1e61263f-1f44-407e-8ca4-120c57ef9eda}; ! Name of Object 1

