
OS:Version,
  {357dc1ee-f4d5-4376-96bc-8cd5b600c761}, ! Handle
  0.9.3;                                  ! Version Identifier

OS:SizingPeriod:DesignDay,
  {c63f493c-4dd2-44cd-aeff-2accd1691410}, ! Handle
  La Crosse Ann Htg Wind 99% Condns WS=>MCDB, ! Name
  -8.4,                                   ! Maximum Dry-Bulb Temperature {C}
  0,                                      ! Daily Dry-Bulb Temperature Range {deltaC}
  -8.4,                                   ! Humidity Indicating Conditions at Maximum Dry-Bulb {BasedOnField A3}
  98922,                                  ! Barometric Pressure {Pa}
  10.5,                                   ! Wind Speed {m/s}
  330,                                    ! Wind Direction {deg}
  0,                                      ! Sky Clearness
  0,                                      ! Rain Indicator
  0,                                      ! Snow Indicator
  21,                                     ! Day of Month
  1,                                      ! Month
  WinterDesignDay,                        ! Day Type
  0,                                      ! Daylight Saving Time Indicator
  Wetbulb,                                ! Humidity Indicating Type
  ,                                       ! Humidity Indicating Day Schedule Name
  DefaultMultipliers,                     ! Dry-Bulb Temperature Range Modifier Type
  ,                                       ! Dry-Bulb Temperature Range Modifier Schedule Name
  ASHRAEClearSky;                         ! Solar Model Indicator

OS:ComponentData,
  {e35e04ed-46fa-4e75-b227-74d456d69e24}, ! Handle
  Component Data 1,                       ! Name
  {19465b70-786e-46f4-b197-4cef3de38545}, ! UUID
  {53b8cf4c-0490-4dd5-93d8-ed59c23196c2}, ! Version UUID
  1366311507,                             ! Creation Timestamp
  1366311507,                             ! Version Timestamp
  {c63f493c-4dd2-44cd-aeff-2accd1691410}; ! Name of Object 1

