
OS:Version,
  {24f7924f-0434-4ed1-84bc-767d0602527c}, ! Handle
  0.9.3;                                  ! Version Identifier

OS:SizingPeriod:DesignDay,
  {70c6043e-2d8a-4118-a48b-24f78ed8401d}, ! Handle
  JACKSON Ann Clg 1% Condns Enth=>MDB,    ! Name
  31.7,                                   ! Maximum Dry-Bulb Temperature {C}
  10.7,                                   ! Daily Dry-Bulb Temperature Range {deltaC}
  80800,                                  ! Humidity Indicating Conditions at Maximum Dry-Bulb {BasedOnField A3}
  100118,                                 ! Barometric Pressure {Pa}
  3.2,                                    ! Wind Speed {m/s}
  350,                                    ! Wind Direction {deg}
  0,                                      ! Sky Clearness
  0,                                      ! Rain Indicator
  0,                                      ! Snow Indicator
  21,                                     ! Day of Month
  7,                                      ! Month
  SummerDesignDay,                        ! Day Type
  0,                                      ! Daylight Saving Time Indicator
  Enthalpy,                               ! Humidity Indicating Type
  ,                                       ! Humidity Indicating Day Schedule Name
  DefaultMultipliers,                     ! Dry-Bulb Temperature Range Modifier Type
  ,                                       ! Dry-Bulb Temperature Range Modifier Schedule Name
  ASHRAETau,                              ! Solar Model Indicator
  ,                                       ! Beam Solar Day Schedule Name
  ,                                       ! Diffuse Solar Day Schedule Name
  0.534,                                  ! ASHRAE Taub {dimensionless}
  1.869;                                  ! ASHRAE Taud {dimensionless}

OS:ComponentData,
  {996a7357-4bb7-4ef0-8df5-27f81c54278a}, ! Handle
  Component Data 1,                       ! Name
  {b34727a4-033c-46fd-8749-92824a5f9615}, ! UUID
  {6c228482-cfc1-4865-9007-9f3ece2749e5}, ! Version UUID
  1366308641,                             ! Creation Timestamp
  1366308641,                             ! Version Timestamp
  {70c6043e-2d8a-4118-a48b-24f78ed8401d}; ! Name of Object 1

