
OS:Version,
  {d0619b99-4e41-493c-a9a7-adc63012becf}, ! Handle
  0.9.3;                                  ! Version Identifier

OS:SizingPeriod:DesignDay,
  {7c4d0b92-9807-4474-9d9a-0b15cad99fba}, ! Handle
  Cotulla Faa Ap Ann Htg Wind 99.6% Condns WS=>MCDB, ! Name
  16.3,                                   ! Maximum Dry-Bulb Temperature {C}
  0,                                      ! Daily Dry-Bulb Temperature Range {deltaC}
  16.3,                                   ! Humidity Indicating Conditions at Maximum Dry-Bulb {BasedOnField A3}
  99643,                                  ! Barometric Pressure {Pa}
  9.9,                                    ! Wind Speed {m/s}
  20,                                     ! Wind Direction {deg}
  0,                                      ! Sky Clearness
  0,                                      ! Rain Indicator
  0,                                      ! Snow Indicator
  21,                                     ! Day of Month
  1,                                      ! Month
  WinterDesignDay,                        ! Day Type
  0,                                      ! Daylight Saving Time Indicator
  Wetbulb,                                ! Humidity Indicating Type
  ,                                       ! Humidity Indicating Day Schedule Name
  DefaultMultipliers,                     ! Dry-Bulb Temperature Range Modifier Type
  ,                                       ! Dry-Bulb Temperature Range Modifier Schedule Name
  ASHRAEClearSky;                         ! Solar Model Indicator

OS:ComponentData,
  {047cafdd-34df-46d3-b8be-4f69fea497ec}, ! Handle
  Component Data 1,                       ! Name
  {a10c9d1a-d76a-448e-873e-5cdf1e12c7f2}, ! UUID
  {b9341315-c513-4af6-aae3-84097b726276}, ! Version UUID
  1366310638,                             ! Creation Timestamp
  1366310638,                             ! Version Timestamp
  {7c4d0b92-9807-4474-9d9a-0b15cad99fba}; ! Name of Object 1

