
OS:Version,
  {e004e383-e27a-4761-885e-93e4066d9431}, ! Handle
  0.9.3;                                  ! Version Identifier

OS:SizingPeriod:DesignDay,
  {61c62d90-3f5a-4463-9ded-8d8b33846d31}, ! Handle
  Decatur Ann Clg 1% Condns Enth=>MDB,    ! Name
  31,                                     ! Maximum Dry-Bulb Temperature {C}
  11.2,                                   ! Daily Dry-Bulb Temperature Range {deltaC}
  78900,                                  ! Humidity Indicating Conditions at Maximum Dry-Bulb {BasedOnField A3}
  98792,                                  ! Barometric Pressure {Pa}
  4.9,                                    ! Wind Speed {m/s}
  240,                                    ! Wind Direction {deg}
  0,                                      ! Sky Clearness
  0,                                      ! Rain Indicator
  0,                                      ! Snow Indicator
  21,                                     ! Day of Month
  7,                                      ! Month
  SummerDesignDay,                        ! Day Type
  0,                                      ! Daylight Saving Time Indicator
  Enthalpy,                               ! Humidity Indicating Type
  ,                                       ! Humidity Indicating Day Schedule Name
  DefaultMultipliers,                     ! Dry-Bulb Temperature Range Modifier Type
  ,                                       ! Dry-Bulb Temperature Range Modifier Schedule Name
  ASHRAETau,                              ! Solar Model Indicator
  ,                                       ! Beam Solar Day Schedule Name
  ,                                       ! Diffuse Solar Day Schedule Name
  0.462,                                  ! ASHRAE Taub {dimensionless}
  2.022;                                  ! ASHRAE Taud {dimensionless}

OS:ComponentData,
  {0024901f-eb26-42c2-b075-1ef9e0d633f3}, ! Handle
  Component Data 1,                       ! Name
  {25ad6bf0-79e1-485b-80a0-58642ef5f594}, ! UUID
  {0cd4da32-ef53-470a-aaa3-e096123838b5}, ! Version UUID
  1366307356,                             ! Creation Timestamp
  1366307356,                             ! Version Timestamp
  {61c62d90-3f5a-4463-9ded-8d8b33846d31}; ! Name of Object 1

