
OS:Version,
  {5920d2fb-afb6-44e5-916a-ec8a560f74ee}, ! Handle
  0.9.3;                                  ! Version Identifier

OS:SizingPeriod:DesignDay,
  {dd388cd3-2701-4e99-aa04-9ca8a838b32c}, ! Handle
  Elkins Elkins Randolph Co Arp Ann Htg 99.6% Condns DB, ! Name
  -17.8,                                  ! Maximum Dry-Bulb Temperature {C}
  0,                                      ! Daily Dry-Bulb Temperature Range {deltaC}
  -17.8,                                  ! Humidity Indicating Conditions at Maximum Dry-Bulb {BasedOnField A3}
  94390,                                  ! Barometric Pressure {Pa}
  1.3,                                    ! Wind Speed {m/s}
  260,                                    ! Wind Direction {deg}
  0,                                      ! Sky Clearness
  0,                                      ! Rain Indicator
  0,                                      ! Snow Indicator
  21,                                     ! Day of Month
  1,                                      ! Month
  WinterDesignDay,                        ! Day Type
  0,                                      ! Daylight Saving Time Indicator
  Wetbulb,                                ! Humidity Indicating Type
  ,                                       ! Humidity Indicating Day Schedule Name
  DefaultMultipliers,                     ! Dry-Bulb Temperature Range Modifier Type
  ,                                       ! Dry-Bulb Temperature Range Modifier Schedule Name
  ASHRAEClearSky;                         ! Solar Model Indicator

OS:ComponentData,
  {47b81f39-9308-4866-9782-a3ebf589299c}, ! Handle
  Component Data 1,                       ! Name
  {1220783b-b8c5-482c-b63e-9b791d30a193}, ! UUID
  {697159fc-3aab-48f9-84de-7b29f5b1214a}, ! Version UUID
  1366311640,                             ! Creation Timestamp
  1366311640,                             ! Version Timestamp
  {dd388cd3-2701-4e99-aa04-9ca8a838b32c}; ! Name of Object 1

