
OS:Version,
  {89040550-452d-4bab-9531-6c6ca402d67b}, ! Handle
  0.9.3;                                  ! Version Identifier

OS:SizingPeriod:DesignDay,
  {1eb21824-ff5c-4758-96eb-b29a57fa9732}, ! Handle
  GREAT_FALLS Ann Htg Wind 99.6% Condns WS=>MCDB, ! Name
  7.3,                                    ! Maximum Dry-Bulb Temperature {C}
  0,                                      ! Daily Dry-Bulb Temperature Range {deltaC}
  7.3,                                    ! Humidity Indicating Conditions at Maximum Dry-Bulb {BasedOnField A3}
  88617,                                  ! Barometric Pressure {Pa}
  14.9,                                   ! Wind Speed {m/s}
  40,                                     ! Wind Direction {deg}
  0,                                      ! Sky Clearness
  0,                                      ! Rain Indicator
  0,                                      ! Snow Indicator
  21,                                     ! Day of Month
  1,                                      ! Month
  WinterDesignDay,                        ! Day Type
  0,                                      ! Daylight Saving Time Indicator
  Wetbulb,                                ! Humidity Indicating Type
  ,                                       ! Humidity Indicating Day Schedule Name
  DefaultMultipliers,                     ! Dry-Bulb Temperature Range Modifier Type
  ,                                       ! Dry-Bulb Temperature Range Modifier Schedule Name
  ASHRAEClearSky;                         ! Solar Model Indicator

OS:ComponentData,
  {4afc8dc5-9ad9-4747-aba2-b2035c016971}, ! Handle
  Component Data 1,                       ! Name
  {2e11e8fe-7616-4bbc-abb6-fdb6efe32dcd}, ! UUID
  {fd576e4f-f1a9-487d-b396-c735dbe57b9b}, ! Version UUID
  1366308771,                             ! Creation Timestamp
  1366308771,                             ! Version Timestamp
  {1eb21824-ff5c-4758-96eb-b29a57fa9732}; ! Name of Object 1

