
OS:Version,
  {6ed4e5a4-4d73-4875-ab97-854f5089cb50}, ! Handle
  0.9.3;                                  ! Version Identifier

OS:SizingPeriod:DesignDay,
  {079da544-fb93-4924-a67f-639052aa2815}, ! Handle
  Hartford/Brainard Fiel Ann Clg 2% Condns DP=>MDB, ! Name
  25.5,                                   ! Maximum Dry-Bulb Temperature {C}
  11.4,                                   ! Daily Dry-Bulb Temperature Range {deltaC}
  21.4,                                   ! Humidity Indicating Conditions at Maximum Dry-Bulb {BasedOnField A3}
  101253,                                 ! Barometric Pressure {Pa}
  4.5,                                    ! Wind Speed {m/s}
  220,                                    ! Wind Direction {deg}
  0,                                      ! Sky Clearness
  0,                                      ! Rain Indicator
  0,                                      ! Snow Indicator
  21,                                     ! Day of Month
  7,                                      ! Month
  SummerDesignDay,                        ! Day Type
  0,                                      ! Daylight Saving Time Indicator
  Dewpoint,                               ! Humidity Indicating Type
  ,                                       ! Humidity Indicating Day Schedule Name
  DefaultMultipliers,                     ! Dry-Bulb Temperature Range Modifier Type
  ,                                       ! Dry-Bulb Temperature Range Modifier Schedule Name
  ASHRAETau,                              ! Solar Model Indicator
  ,                                       ! Beam Solar Day Schedule Name
  ,                                       ! Diffuse Solar Day Schedule Name
  0.486,                                  ! ASHRAE Taub {dimensionless}
  1.943;                                  ! ASHRAE Taud {dimensionless}

OS:ComponentData,
  {369083d2-771f-49bc-a40e-7e7a28d7fbe6}, ! Handle
  Component Data 1,                       ! Name
  {7e6d796a-81a5-4830-8314-b54a5e402b18}, ! UUID
  {b6e51680-03c4-43af-98de-24d25863a209}, ! Version UUID
  1366306754,                             ! Creation Timestamp
  1366306754,                             ! Version Timestamp
  {079da544-fb93-4924-a67f-639052aa2815}; ! Name of Object 1

