
OS:Version,
  {d8a56ecb-5ef8-4635-a79b-e77bd056ff83}, ! Handle
  0.9.3;                                  ! Version Identifier

OS:SizingPeriod:DesignDay,
  {1c689aa6-b92d-4d03-b268-88602e09a999}, ! Handle
  Kearney Muni  Awos Ann Clg 1% Condns Enth=>MDB, ! Name
  30.5,                                   ! Maximum Dry-Bulb Temperature {C}
  12.2,                                   ! Daily Dry-Bulb Temperature Range {deltaC}
  74200,                                  ! Humidity Indicating Conditions at Maximum Dry-Bulb {BasedOnField A3}
  93767,                                  ! Barometric Pressure {Pa}
  6.4,                                    ! Wind Speed {m/s}
  190,                                    ! Wind Direction {deg}
  0,                                      ! Sky Clearness
  0,                                      ! Rain Indicator
  0,                                      ! Snow Indicator
  21,                                     ! Day of Month
  7,                                      ! Month
  SummerDesignDay,                        ! Day Type
  0,                                      ! Daylight Saving Time Indicator
  Enthalpy,                               ! Humidity Indicating Type
  ,                                       ! Humidity Indicating Day Schedule Name
  DefaultMultipliers,                     ! Dry-Bulb Temperature Range Modifier Type
  ,                                       ! Dry-Bulb Temperature Range Modifier Schedule Name
  ASHRAETau,                              ! Solar Model Indicator
  ,                                       ! Beam Solar Day Schedule Name
  ,                                       ! Diffuse Solar Day Schedule Name
  0.404,                                  ! ASHRAE Taub {dimensionless}
  2.221;                                  ! ASHRAE Taud {dimensionless}

OS:ComponentData,
  {298f180b-a2c8-48a3-9503-311a46c80141}, ! Handle
  Component Data 1,                       ! Name
  {cd07c0a4-4670-418e-bc7e-5740e918d522}, ! UUID
  {fe69152d-6656-4dc3-b1f7-3d05d5208f48}, ! Version UUID
  1366309136,                             ! Creation Timestamp
  1366309136,                             ! Version Timestamp
  {1c689aa6-b92d-4d03-b268-88602e09a999}; ! Name of Object 1

