
OS:Version,
  {a563abbb-202e-4124-8446-4499aaa9ef79}, ! Handle
  0.9.3;                                  ! Version Identifier

OS:SizingPeriod:DesignDay,
  {f6ba32d5-1d15-4e73-8346-7fab90a63190}, ! Handle
  Fair Field Ann Htg Wind 99.6% Condns WS=>MCDB, ! Name
  -10.6,                                  ! Maximum Dry-Bulb Temperature {C}
  0,                                      ! Daily Dry-Bulb Temperature Range {deltaC}
  -10.6,                                  ! Humidity Indicating Conditions at Maximum Dry-Bulb {BasedOnField A3}
  98428,                                  ! Barometric Pressure {Pa}
  13.5,                                   ! Wind Speed {m/s}
  290,                                    ! Wind Direction {deg}
  0,                                      ! Sky Clearness
  0,                                      ! Rain Indicator
  0,                                      ! Snow Indicator
  21,                                     ! Day of Month
  1,                                      ! Month
  WinterDesignDay,                        ! Day Type
  0,                                      ! Daylight Saving Time Indicator
  Wetbulb,                                ! Humidity Indicating Type
  ,                                       ! Humidity Indicating Day Schedule Name
  DefaultMultipliers,                     ! Dry-Bulb Temperature Range Modifier Type
  ,                                       ! Dry-Bulb Temperature Range Modifier Schedule Name
  ASHRAEClearSky;                         ! Solar Model Indicator

OS:ComponentData,
  {0dce152b-f93b-4115-a8b5-c81a5264cdc7}, ! Handle
  Component Data 1,                       ! Name
  {0faafc4f-0b20-48e9-a98e-4e8bb400bd60}, ! UUID
  {d184a990-a242-4b72-87a8-53b726a251a9}, ! Version UUID
  1366307192,                             ! Creation Timestamp
  1366307192,                             ! Version Timestamp
  {f6ba32d5-1d15-4e73-8346-7fab90a63190}; ! Name of Object 1

