
OS:Version,
  {bfec84ac-7a9d-4273-94e6-a75f7ee1fd93}, ! Handle
  0.9.3;                                  ! Version Identifier

OS:SizingPeriod:DesignDay,
  {bd62efab-9e0a-4ee1-8799-7b033ac07668}, ! Handle
  Cleveland Hopkins Intl Ap Ann Clg 1% Condns WB=>MDB, ! Name
  28.4,                                   ! Maximum Dry-Bulb Temperature {C}
  9.8,                                    ! Daily Dry-Bulb Temperature Range {deltaC}
  23.7,                                   ! Humidity Indicating Conditions at Maximum Dry-Bulb {BasedOnField A3}
  98534,                                  ! Barometric Pressure {Pa}
  5,                                      ! Wind Speed {m/s}
  230,                                    ! Wind Direction {deg}
  0,                                      ! Sky Clearness
  0,                                      ! Rain Indicator
  0,                                      ! Snow Indicator
  21,                                     ! Day of Month
  7,                                      ! Month
  SummerDesignDay,                        ! Day Type
  0,                                      ! Daylight Saving Time Indicator
  Wetbulb,                                ! Humidity Indicating Type
  ,                                       ! Humidity Indicating Day Schedule Name
  DefaultMultipliers,                     ! Dry-Bulb Temperature Range Modifier Type
  ,                                       ! Dry-Bulb Temperature Range Modifier Schedule Name
  ASHRAETau,                              ! Solar Model Indicator
  ,                                       ! Beam Solar Day Schedule Name
  ,                                       ! Diffuse Solar Day Schedule Name
  0.471,                                  ! ASHRAE Taub {dimensionless}
  1.988;                                  ! ASHRAE Taud {dimensionless}

OS:ComponentData,
  {178837d6-d463-45c6-833f-00492c6d8783}, ! Handle
  Component Data 1,                       ! Name
  {7c1fe608-e40a-4f59-8655-fba019995bd8}, ! UUID
  {b2b8e573-24e6-41f3-b8b7-837dbe0bb26d}, ! Version UUID
  1366309781,                             ! Creation Timestamp
  1366309781,                             ! Version Timestamp
  {bd62efab-9e0a-4ee1-8799-7b033ac07668}; ! Name of Object 1

