
OS:Version,
  {54cf28c7-ecb3-4cbc-9b51-2aeb435df9db}, ! Handle
  0.9.3;                                  ! Version Identifier

OS:SizingPeriod:DesignDay,
  {2a365542-bff4-4ee8-bf2b-43d784bf934e}, ! Handle
  Lynchburg Regional Arpt Ann Htg 99% Condns DB, ! Name
  -7.3,                                   ! Maximum Dry-Bulb Temperature {C}
  0,                                      ! Daily Dry-Bulb Temperature Range {deltaC}
  -7.3,                                   ! Humidity Indicating Conditions at Maximum Dry-Bulb {BasedOnField A3}
  97936,                                  ! Barometric Pressure {Pa}
  2.4,                                    ! Wind Speed {m/s}
  0,                                      ! Wind Direction {deg}
  0,                                      ! Sky Clearness
  0,                                      ! Rain Indicator
  0,                                      ! Snow Indicator
  21,                                     ! Day of Month
  1,                                      ! Month
  WinterDesignDay,                        ! Day Type
  0,                                      ! Daylight Saving Time Indicator
  Wetbulb,                                ! Humidity Indicating Type
  ,                                       ! Humidity Indicating Day Schedule Name
  DefaultMultipliers,                     ! Dry-Bulb Temperature Range Modifier Type
  ,                                       ! Dry-Bulb Temperature Range Modifier Schedule Name
  ASHRAEClearSky;                         ! Solar Model Indicator

OS:ComponentData,
  {0a3b49ad-ca77-4886-85f7-ab8d4ce162d9}, ! Handle
  Component Data 1,                       ! Name
  {35918d03-acb2-4f78-9938-1cd873cc1a2a}, ! UUID
  {7e1240d7-46d7-4008-8af1-015b2af1140a}, ! Version UUID
  1366311088,                             ! Creation Timestamp
  1366311088,                             ! Version Timestamp
  {2a365542-bff4-4ee8-bf2b-43d784bf934e}; ! Name of Object 1

