
OS:Version,
  {308d6775-c1d4-4661-b0c5-b1fe35691199}, ! Handle
  0.9.3;                                  ! Version Identifier

OS:SizingPeriod:DesignDay,
  {76426513-195f-4269-96da-97a549ff6d0e}, ! Handle
  KODIAK Ann Hum_n 99% Condns DP=>MCDB,   ! Name
  -9.2,                                   ! Maximum Dry-Bulb Temperature {C}
  0,                                      ! Daily Dry-Bulb Temperature Range {deltaC}
  -17.5,                                  ! Humidity Indicating Conditions at Maximum Dry-Bulb {BasedOnField A3}
  100917,                                 ! Barometric Pressure {Pa}
  6,                                      ! Wind Speed {m/s}
  300,                                    ! Wind Direction {deg}
  0,                                      ! Sky Clearness
  0,                                      ! Rain Indicator
  0,                                      ! Snow Indicator
  21,                                     ! Day of Month
  1,                                      ! Month
  WinterDesignDay,                        ! Day Type
  0,                                      ! Daylight Saving Time Indicator
  Dewpoint,                               ! Humidity Indicating Type
  ,                                       ! Humidity Indicating Day Schedule Name
  DefaultMultipliers,                     ! Dry-Bulb Temperature Range Modifier Type
  ,                                       ! Dry-Bulb Temperature Range Modifier Schedule Name
  ASHRAEClearSky;                         ! Solar Model Indicator

OS:ComponentData,
  {51282999-3d1a-489e-b1b4-f5d2bab2060c}, ! Handle
  Component Data 1,                       ! Name
  {dbdd82a2-3e95-4926-81ba-98765d2cdde2}, ! UUID
  {934e847f-96b6-4f31-b955-db9a6c426a53}, ! Version UUID
  1366305370,                             ! Creation Timestamp
  1366305370,                             ! Version Timestamp
  {76426513-195f-4269-96da-97a549ff6d0e}; ! Name of Object 1

