
OS:Version,
  {d914a0bf-a691-4378-8dd4-211ccdc0d8c2}, ! Handle
  0.9.3;                                  ! Version Identifier

OS:SizingPeriod:DesignDay,
  {6f528d02-f3f2-4c4c-9e71-1907db3bf4de}, ! Handle
  Baudette International Ap Ann Htg 99% Condns DB, ! Name
  -28.4,                                  ! Maximum Dry-Bulb Temperature {C}
  0,                                      ! Daily Dry-Bulb Temperature Range {deltaC}
  -28.4,                                  ! Humidity Indicating Conditions at Maximum Dry-Bulb {BasedOnField A3}
  97423,                                  ! Barometric Pressure {Pa}
  1.7,                                    ! Wind Speed {m/s}
  310,                                    ! Wind Direction {deg}
  0,                                      ! Sky Clearness
  0,                                      ! Rain Indicator
  0,                                      ! Snow Indicator
  21,                                     ! Day of Month
  1,                                      ! Month
  WinterDesignDay,                        ! Day Type
  0,                                      ! Daylight Saving Time Indicator
  Wetbulb,                                ! Humidity Indicating Type
  ,                                       ! Humidity Indicating Day Schedule Name
  DefaultMultipliers,                     ! Dry-Bulb Temperature Range Modifier Type
  ,                                       ! Dry-Bulb Temperature Range Modifier Schedule Name
  ASHRAEClearSky;                         ! Solar Model Indicator

OS:ComponentData,
  {23261085-cd55-4de6-8d39-d65f00bb9ad9}, ! Handle
  Component Data 1,                       ! Name
  {e387fa90-fdeb-4225-8a3e-522674ff2441}, ! UUID
  {a5b70155-b593-4ac5-aa7c-1729bd662b03}, ! Version UUID
  1366308153,                             ! Creation Timestamp
  1366308153,                             ! Version Timestamp
  {6f528d02-f3f2-4c4c-9e71-1907db3bf4de}; ! Name of Object 1

