
OS:Version,
  {0d70171f-e750-497e-bbd6-d3b8831f2c9b}, ! Handle
  0.9.3;                                  ! Version Identifier

OS:SizingPeriod:DesignDay,
  {6a67cb2b-dba3-46c5-aa97-bd645079d801}, ! Handle
  Cheyenne Municipal Arpt Ann Clg 1% Condns Enth=>MDB, ! Name
  24.8,                                   ! Maximum Dry-Bulb Temperature {C}
  14.6,                                   ! Daily Dry-Bulb Temperature Range {deltaC}
  53100,                                  ! Humidity Indicating Conditions at Maximum Dry-Bulb {BasedOnField A3}
  80817,                                  ! Barometric Pressure {Pa}
  5.3,                                    ! Wind Speed {m/s}
  170,                                    ! Wind Direction {deg}
  0,                                      ! Sky Clearness
  0,                                      ! Rain Indicator
  0,                                      ! Snow Indicator
  21,                                     ! Day of Month
  7,                                      ! Month
  SummerDesignDay,                        ! Day Type
  0,                                      ! Daylight Saving Time Indicator
  Enthalpy,                               ! Humidity Indicating Type
  ,                                       ! Humidity Indicating Day Schedule Name
  DefaultMultipliers,                     ! Dry-Bulb Temperature Range Modifier Type
  ,                                       ! Dry-Bulb Temperature Range Modifier Schedule Name
  ASHRAETau,                              ! Solar Model Indicator
  ,                                       ! Beam Solar Day Schedule Name
  ,                                       ! Diffuse Solar Day Schedule Name
  0.404,                                  ! ASHRAE Taub {dimensionless}
  2.038;                                  ! ASHRAE Taud {dimensionless}

OS:ComponentData,
  {5330b556-d684-4984-9404-57bf745fe075}, ! Handle
  Component Data 1,                       ! Name
  {8bd92748-8d51-43e2-a81d-b3dbed3b6e46}, ! UUID
  {473c8478-0677-4766-8109-acc1e0e9df5b}, ! Version UUID
  1366311713,                             ! Creation Timestamp
  1366311713,                             ! Version Timestamp
  {6a67cb2b-dba3-46c5-aa97-bd645079d801}; ! Name of Object 1

