
OS:Version,
  {99c91bac-f626-42c0-8244-61b3c82da006}, ! Handle
  0.9.3;                                  ! Version Identifier

OS:SizingPeriod:DesignDay,
  {45352665-335f-4218-b945-40001a2a4726}, ! Handle
  Huntsville Intl Jones Field Ann Clg .4% Condns DP=>MDB, ! Name
  28.1,                                   ! Maximum Dry-Bulb Temperature {C}
  10.4,                                   ! Daily Dry-Bulb Temperature Range {deltaC}
  24.3,                                   ! Humidity Indicating Conditions at Maximum Dry-Bulb {BasedOnField A3}
  99063,                                  ! Barometric Pressure {Pa}
  3.6,                                    ! Wind Speed {m/s}
  270,                                    ! Wind Direction {deg}
  0,                                      ! Sky Clearness
  0,                                      ! Rain Indicator
  0,                                      ! Snow Indicator
  21,                                     ! Day of Month
  7,                                      ! Month
  SummerDesignDay,                        ! Day Type
  0,                                      ! Daylight Saving Time Indicator
  Dewpoint,                               ! Humidity Indicating Type
  ,                                       ! Humidity Indicating Day Schedule Name
  DefaultMultipliers,                     ! Dry-Bulb Temperature Range Modifier Type
  ,                                       ! Dry-Bulb Temperature Range Modifier Schedule Name
  ASHRAETau,                              ! Solar Model Indicator
  ,                                       ! Beam Solar Day Schedule Name
  ,                                       ! Diffuse Solar Day Schedule Name
  0.552,                                  ! ASHRAE Taub {dimensionless}
  1.785;                                  ! ASHRAE Taud {dimensionless}

OS:ComponentData,
  {fa645ad7-5742-4a8d-b5b6-5200190d3ec5}, ! Handle
  Component Data 1,                       ! Name
  {1a663243-d711-47bd-b25f-efc1d6210d37}, ! UUID
  {df977a71-a52f-4844-b80c-523ff674e1e1}, ! Version UUID
  1366305671,                             ! Creation Timestamp
  1366305671,                             ! Version Timestamp
  {45352665-335f-4218-b945-40001a2a4726}; ! Name of Object 1

