
OS:Version,
  {87f6dc5b-474e-45be-9eeb-ba140217fdd3}, ! Handle
  0.9.3;                                  ! Version Identifier

OS:SizingPeriod:DesignDay,
  {39c981ba-e8f5-4f8f-80d3-d47dca6f711b}, ! Handle
  Jacksonville Craig Ann Clg .4% Condns Enth=>MDB, ! Name
  31.3,                                   ! Maximum Dry-Bulb Temperature {C}
  9.5,                                    ! Daily Dry-Bulb Temperature Range {deltaC}
  83800,                                  ! Humidity Indicating Conditions at Maximum Dry-Bulb {BasedOnField A3}
  101181,                                 ! Barometric Pressure {Pa}
  4.2,                                    ! Wind Speed {m/s}
  240,                                    ! Wind Direction {deg}
  0,                                      ! Sky Clearness
  0,                                      ! Rain Indicator
  0,                                      ! Snow Indicator
  21,                                     ! Day of Month
  7,                                      ! Month
  SummerDesignDay,                        ! Day Type
  0,                                      ! Daylight Saving Time Indicator
  Enthalpy,                               ! Humidity Indicating Type
  ,                                       ! Humidity Indicating Day Schedule Name
  DefaultMultipliers,                     ! Dry-Bulb Temperature Range Modifier Type
  ,                                       ! Dry-Bulb Temperature Range Modifier Schedule Name
  ASHRAETau,                              ! Solar Model Indicator
  ,                                       ! Beam Solar Day Schedule Name
  ,                                       ! Diffuse Solar Day Schedule Name
  0.538,                                  ! ASHRAE Taub {dimensionless}
  1.872;                                  ! ASHRAE Taud {dimensionless}

OS:ComponentData,
  {4073ec0f-9bea-43ce-8fec-5e8a21e2c76a}, ! Handle
  Component Data 1,                       ! Name
  {6c499d7d-d57a-4b28-879d-d7564e81096e}, ! UUID
  {87af11bd-c7e4-42e6-a97d-2b687aa280c6}, ! Version UUID
  1366306814,                             ! Creation Timestamp
  1366306814,                             ! Version Timestamp
  {39c981ba-e8f5-4f8f-80d3-d47dca6f711b}; ! Name of Object 1

