
OS:Version,
  {2f3afe9c-fcbd-40e0-a1ed-f3d976c39c2e}, ! Handle
  0.9.3;                                  ! Version Identifier

OS:SizingPeriod:DesignDay,
  {affb26da-7b58-404a-97b8-776fdc0ecfbb}, ! Handle
  Gallup Sen Clarke Fld Ann Htg 99% Condns DB, ! Name
  -14.8,                                  ! Maximum Dry-Bulb Temperature {C}
  0,                                      ! Daily Dry-Bulb Temperature Range {deltaC}
  -14.8,                                  ! Humidity Indicating Conditions at Maximum Dry-Bulb {BasedOnField A3}
  79782,                                  ! Barometric Pressure {Pa}
  0.6,                                    ! Wind Speed {m/s}
  160,                                    ! Wind Direction {deg}
  0,                                      ! Sky Clearness
  0,                                      ! Rain Indicator
  0,                                      ! Snow Indicator
  21,                                     ! Day of Month
  12,                                     ! Month
  WinterDesignDay,                        ! Day Type
  0,                                      ! Daylight Saving Time Indicator
  Wetbulb,                                ! Humidity Indicating Type
  ,                                       ! Humidity Indicating Day Schedule Name
  DefaultMultipliers,                     ! Dry-Bulb Temperature Range Modifier Type
  ,                                       ! Dry-Bulb Temperature Range Modifier Schedule Name
  ASHRAEClearSky;                         ! Solar Model Indicator

OS:ComponentData,
  {e971bdc0-22c2-4298-b474-1ca5f5934055}, ! Handle
  Component Data 1,                       ! Name
  {17b68961-75b6-4897-b9ff-ecf715eeb463}, ! UUID
  {883eae85-7bb3-45b5-8430-4ca6e97a7657}, ! Version UUID
  1366309408,                             ! Creation Timestamp
  1366309408,                             ! Version Timestamp
  {affb26da-7b58-404a-97b8-776fdc0ecfbb}; ! Name of Object 1

