
OS:Version,
  {78266763-474b-4f47-8eed-6629bc2a3b57}, ! Handle
  0.9.3;                                  ! Version Identifier

OS:SizingPeriod:DesignDay,
  {da04630f-8ef2-4c6c-a32e-7ebb4e85182f}, ! Handle
  HOUSTON Ann Clg .4% Condns WB=>MDB,     ! Name
  31.7,                                   ! Maximum Dry-Bulb Temperature {C}
  10.1,                                   ! Daily Dry-Bulb Temperature Range {deltaC}
  26.7,                                   ! Humidity Indicating Conditions at Maximum Dry-Bulb {BasedOnField A3}
  100929,                                 ! Barometric Pressure {Pa}
  3.5,                                    ! Wind Speed {m/s}
  170,                                    ! Wind Direction {deg}
  0,                                      ! Sky Clearness
  0,                                      ! Rain Indicator
  0,                                      ! Snow Indicator
  21,                                     ! Day of Month
  7,                                      ! Month
  SummerDesignDay,                        ! Day Type
  0,                                      ! Daylight Saving Time Indicator
  Wetbulb,                                ! Humidity Indicating Type
  ,                                       ! Humidity Indicating Day Schedule Name
  DefaultMultipliers,                     ! Dry-Bulb Temperature Range Modifier Type
  ,                                       ! Dry-Bulb Temperature Range Modifier Schedule Name
  ASHRAETau,                              ! Solar Model Indicator
  ,                                       ! Beam Solar Day Schedule Name
  ,                                       ! Diffuse Solar Day Schedule Name
  0.499,                                  ! ASHRAE Taub {dimensionless}
  1.97;                                   ! ASHRAE Taud {dimensionless}

OS:ComponentData,
  {22519efd-6d68-4f65-bda3-1fa658b46a09}, ! Handle
  Component Data 1,                       ! Name
  {1d73faef-c911-4821-9f81-74c0683395d8}, ! UUID
  {7b161821-b316-4e30-a6c3-52c902c7960c}, ! Version UUID
  1366310755,                             ! Creation Timestamp
  1366310755,                             ! Version Timestamp
  {da04630f-8ef2-4c6c-a32e-7ebb4e85182f}; ! Name of Object 1

