
OS:Version,
  {65d87602-efe9-405b-903d-6c4ab12c9832}, ! Handle
  0.9.3;                                  ! Version Identifier

OS:SizingPeriod:DesignDay,
  {3357c251-f10c-4a9c-ab47-0b863e5774a2}, ! Handle
  Andrews Afb Ann Htg 99.6% Condns DB,    ! Name
  -10.1,                                  ! Maximum Dry-Bulb Temperature {C}
  0,                                      ! Daily Dry-Bulb Temperature Range {deltaC}
  -10.1,                                  ! Humidity Indicating Conditions at Maximum Dry-Bulb {BasedOnField A3}
  100296,                                 ! Barometric Pressure {Pa}
  3.9,                                    ! Wind Speed {m/s}
  320,                                    ! Wind Direction {deg}
  0,                                      ! Sky Clearness
  0,                                      ! Rain Indicator
  0,                                      ! Snow Indicator
  21,                                     ! Day of Month
  1,                                      ! Month
  WinterDesignDay,                        ! Day Type
  0,                                      ! Daylight Saving Time Indicator
  Wetbulb,                                ! Humidity Indicating Type
  ,                                       ! Humidity Indicating Day Schedule Name
  DefaultMultipliers,                     ! Dry-Bulb Temperature Range Modifier Type
  ,                                       ! Dry-Bulb Temperature Range Modifier Schedule Name
  ASHRAEClearSky;                         ! Solar Model Indicator

OS:ComponentData,
  {cd9658b3-3492-4d6a-9eab-8771bd35ba27}, ! Handle
  Component Data 1,                       ! Name
  {00e75365-f085-4f2c-868f-082edc7919f5}, ! UUID
  {e3e5cd2f-f379-42db-a803-a5067c1eaae0}, ! Version UUID
  1366307833,                             ! Creation Timestamp
  1366307833,                             ! Version Timestamp
  {3357c251-f10c-4a9c-ab47-0b863e5774a2}; ! Name of Object 1

