
OS:Version,
  {df6ac309-66af-4443-84f8-edfd91f55c4e}, ! Handle
  0.9.3;                                  ! Version Identifier

OS:SizingPeriod:DesignDay,
  {3d4df07c-ab32-4b5e-8fbe-164b850bd2a3}, ! Handle
  ARCATA Ann Htg Wind 99.6% Condns WS=>MCDB, ! Name
  12.3,                                   ! Maximum Dry-Bulb Temperature {C}
  0,                                      ! Daily Dry-Bulb Temperature Range {deltaC}
  12.3,                                   ! Humidity Indicating Conditions at Maximum Dry-Bulb {BasedOnField A3}
  100499,                                 ! Barometric Pressure {Pa}
  11.1,                                   ! Wind Speed {m/s}
  90,                                     ! Wind Direction {deg}
  0,                                      ! Sky Clearness
  0,                                      ! Rain Indicator
  0,                                      ! Snow Indicator
  21,                                     ! Day of Month
  12,                                     ! Month
  WinterDesignDay,                        ! Day Type
  0,                                      ! Daylight Saving Time Indicator
  Wetbulb,                                ! Humidity Indicating Type
  ,                                       ! Humidity Indicating Day Schedule Name
  DefaultMultipliers,                     ! Dry-Bulb Temperature Range Modifier Type
  ,                                       ! Dry-Bulb Temperature Range Modifier Schedule Name
  ASHRAEClearSky;                         ! Solar Model Indicator

OS:ComponentData,
  {cbc32254-7c2d-4e95-87f6-c1a7c31fcdeb}, ! Handle
  Component Data 1,                       ! Name
  {0cf926c2-7429-41e3-939c-79e8479ce4bf}, ! UUID
  {95f375db-f24e-4349-bf15-8ca15fac1893}, ! Version UUID
  1366306345,                             ! Creation Timestamp
  1366306345,                             ! Version Timestamp
  {3d4df07c-ab32-4b5e-8fbe-164b850bd2a3}; ! Name of Object 1

