
OS:Version,
  {55c25e39-86d7-4752-8ae6-71d86da94e71}, ! Handle
  0.9.3;                                  ! Version Identifier

OS:SizingPeriod:DesignDay,
  {74a14d6d-2d49-4d14-9bc6-10aaccffc808}, ! Handle
  Bentonville  Awos Ann Htg 99% Condns DB, ! Name
  -8.9,                                   ! Maximum Dry-Bulb Temperature {C}
  0,                                      ! Daily Dry-Bulb Temperature Range {deltaC}
  -8.9,                                   ! Humidity Indicating Conditions at Maximum Dry-Bulb {BasedOnField A3}
  96669,                                  ! Barometric Pressure {Pa}
  2.9,                                    ! Wind Speed {m/s}
  310,                                    ! Wind Direction {deg}
  0,                                      ! Sky Clearness
  0,                                      ! Rain Indicator
  0,                                      ! Snow Indicator
  21,                                     ! Day of Month
  1,                                      ! Month
  WinterDesignDay,                        ! Day Type
  0,                                      ! Daylight Saving Time Indicator
  Wetbulb,                                ! Humidity Indicating Type
  ,                                       ! Humidity Indicating Day Schedule Name
  DefaultMultipliers,                     ! Dry-Bulb Temperature Range Modifier Type
  ,                                       ! Dry-Bulb Temperature Range Modifier Schedule Name
  ASHRAEClearSky;                         ! Solar Model Indicator

OS:ComponentData,
  {3dc871fc-34d2-4b1c-a528-aa151d05c182}, ! Handle
  Component Data 1,                       ! Name
  {9818ce4a-2784-4aa3-9a0f-6a19cd4f4adb}, ! UUID
  {054dbfb4-00e6-4808-a9d5-df2390e5d5b2}, ! Version UUID
  1366306194,                             ! Creation Timestamp
  1366306194,                             ! Version Timestamp
  {74a14d6d-2d49-4d14-9bc6-10aaccffc808}; ! Name of Object 1

