
OS:Version,
  {4f1a7ff6-b0aa-4dcf-a405-16d0f80d382e}, ! Handle
  0.9.3;                                  ! Version Identifier

OS:SizingPeriod:DesignDay,
  {dcd447f9-c399-48e5-bdb6-87f029607f5c}, ! Handle
  Langley Afb Ann Hum_n 99.6% Condns DP=>MCDB, ! Name
  -3.4,                                   ! Maximum Dry-Bulb Temperature {C}
  0,                                      ! Daily Dry-Bulb Temperature Range {deltaC}
  -16,                                    ! Humidity Indicating Conditions at Maximum Dry-Bulb {BasedOnField A3}
  101289,                                 ! Barometric Pressure {Pa}
  4.3,                                    ! Wind Speed {m/s}
  340,                                    ! Wind Direction {deg}
  0,                                      ! Sky Clearness
  0,                                      ! Rain Indicator
  0,                                      ! Snow Indicator
  21,                                     ! Day of Month
  1,                                      ! Month
  WinterDesignDay,                        ! Day Type
  0,                                      ! Daylight Saving Time Indicator
  Dewpoint,                               ! Humidity Indicating Type
  ,                                       ! Humidity Indicating Day Schedule Name
  DefaultMultipliers,                     ! Dry-Bulb Temperature Range Modifier Type
  ,                                       ! Dry-Bulb Temperature Range Modifier Schedule Name
  ASHRAEClearSky;                         ! Solar Model Indicator

OS:ComponentData,
  {7547c42f-7e7e-40fd-905e-da557a19b117}, ! Handle
  Component Data 1,                       ! Name
  {5a596e72-a6bf-4094-ac26-dcc83fc9a3a2}, ! UUID
  {9d120e8c-59ea-4257-bd68-da1983b85bfc}, ! Version UUID
  1366311070,                             ! Creation Timestamp
  1366311070,                             ! Version Timestamp
  {dcd447f9-c399-48e5-bdb6-87f029607f5c}; ! Name of Object 1

