
OS:Version,
  {c93734ae-9e9a-45e4-a3b0-98d7a2b307b0}, ! Handle
  0.9.3;                                  ! Version Identifier

OS:SizingPeriod:DesignDay,
  {13cc4956-50f7-4789-b613-7f4eab5a55f0}, ! Handle
  Huntingburg Ann Htg 99% Condns DB,      ! Name
  -10.1,                                  ! Maximum Dry-Bulb Temperature {C}
  0,                                      ! Daily Dry-Bulb Temperature Range {deltaC}
  -10.1,                                  ! Humidity Indicating Conditions at Maximum Dry-Bulb {BasedOnField A3}
  99406,                                  ! Barometric Pressure {Pa}
  3.2,                                    ! Wind Speed {m/s}
  280,                                    ! Wind Direction {deg}
  0,                                      ! Sky Clearness
  0,                                      ! Rain Indicator
  0,                                      ! Snow Indicator
  21,                                     ! Day of Month
  1,                                      ! Month
  WinterDesignDay,                        ! Day Type
  0,                                      ! Daylight Saving Time Indicator
  Wetbulb,                                ! Humidity Indicating Type
  ,                                       ! Humidity Indicating Day Schedule Name
  DefaultMultipliers,                     ! Dry-Bulb Temperature Range Modifier Type
  ,                                       ! Dry-Bulb Temperature Range Modifier Schedule Name
  ASHRAEClearSky;                         ! Solar Model Indicator

OS:ComponentData,
  {eafca41b-ee7b-4de5-b857-b7f8f5cd0d34}, ! Handle
  Component Data 1,                       ! Name
  {422ab931-b7ed-45c5-bbdc-37f7477e3e5f}, ! UUID
  {b9b4a01f-0c39-4de9-8177-1e2bb5cb099c}, ! Version UUID
  1366307453,                             ! Creation Timestamp
  1366307453,                             ! Version Timestamp
  {13cc4956-50f7-4789-b613-7f4eab5a55f0}; ! Name of Object 1

