
OS:Version,
  {fd210a37-2190-4269-a595-fcbb91101a63}, ! Handle
  0.9.3;                                  ! Version Identifier

OS:SizingPeriod:DesignDay,
  {8541f69e-8ad9-4ffd-ab98-1e1985ba4e53}, ! Handle
  Jackson Mckellar Sipes Regl A Ann Clg .4% Condns WB=>MDB, ! Name
  32.5,                                   ! Maximum Dry-Bulb Temperature {C}
  10.8,                                   ! Daily Dry-Bulb Temperature Range {deltaC}
  26.5,                                   ! Humidity Indicating Conditions at Maximum Dry-Bulb {BasedOnField A3}
  99749,                                  ! Barometric Pressure {Pa}
  3.2,                                    ! Wind Speed {m/s}
  240,                                    ! Wind Direction {deg}
  0,                                      ! Sky Clearness
  0,                                      ! Rain Indicator
  0,                                      ! Snow Indicator
  21,                                     ! Day of Month
  7,                                      ! Month
  SummerDesignDay,                        ! Day Type
  0,                                      ! Daylight Saving Time Indicator
  Wetbulb,                                ! Humidity Indicating Type
  ,                                       ! Humidity Indicating Day Schedule Name
  DefaultMultipliers,                     ! Dry-Bulb Temperature Range Modifier Type
  ,                                       ! Dry-Bulb Temperature Range Modifier Schedule Name
  ASHRAETau,                              ! Solar Model Indicator
  ,                                       ! Beam Solar Day Schedule Name
  ,                                       ! Diffuse Solar Day Schedule Name
  0.501,                                  ! ASHRAE Taub {dimensionless}
  1.926;                                  ! ASHRAE Taud {dimensionless}

OS:ComponentData,
  {43b70f07-fed6-4d99-a375-1e8e9cfa26a6}, ! Handle
  Component Data 1,                       ! Name
  {37f2faa3-ef31-4606-bd51-9e27a62962ae}, ! UUID
  {8cce9fe0-6d04-4f92-83c6-ac5008dadf07}, ! Version UUID
  1366310505,                             ! Creation Timestamp
  1366310505,                             ! Version Timestamp
  {8541f69e-8ad9-4ffd-ab98-1e1985ba4e53}; ! Name of Object 1

