
OS:Version,
  {62bc4f37-ff82-4b4c-8697-edc24d4463a4}, ! Handle
  0.9.3;                                  ! Version Identifier

OS:SizingPeriod:DesignDay,
  {b53e9fa7-9731-4837-948b-656ea3e69428}, ! Handle
  Annette Island Ap Ann Clg 1% Condns DB=>MWB, ! Name
  20.5,                                   ! Maximum Dry-Bulb Temperature {C}
  5.2,                                    ! Daily Dry-Bulb Temperature Range {deltaC}
  15,                                     ! Humidity Indicating Conditions at Maximum Dry-Bulb {BasedOnField A3}
  100929,                                 ! Barometric Pressure {Pa}
  3.4,                                    ! Wind Speed {m/s}
  300,                                    ! Wind Direction {deg}
  0,                                      ! Sky Clearness
  0,                                      ! Rain Indicator
  0,                                      ! Snow Indicator
  21,                                     ! Day of Month
  8,                                      ! Month
  SummerDesignDay,                        ! Day Type
  0,                                      ! Daylight Saving Time Indicator
  Wetbulb,                                ! Humidity Indicating Type
  ,                                       ! Humidity Indicating Day Schedule Name
  DefaultMultipliers,                     ! Dry-Bulb Temperature Range Modifier Type
  ,                                       ! Dry-Bulb Temperature Range Modifier Schedule Name
  ASHRAETau,                              ! Solar Model Indicator
  ,                                       ! Beam Solar Day Schedule Name
  ,                                       ! Diffuse Solar Day Schedule Name
  0.369,                                  ! ASHRAE Taub {dimensionless}
  2.372;                                  ! ASHRAE Taud {dimensionless}

OS:ComponentData,
  {65759718-c467-4338-9758-1a41f28edfc1}, ! Handle
  Component Data 1,                       ! Name
  {7ce54f4b-542f-407c-b329-33e584c7b700}, ! UUID
  {b87dd618-3686-4024-858a-75dc2966803f}, ! Version UUID
  1366304727,                             ! Creation Timestamp
  1366304727,                             ! Version Timestamp
  {b53e9fa7-9731-4837-948b-656ea3e69428}; ! Name of Object 1

