
OS:Version,
  {ba892f23-200d-4ffe-8428-4868ed444f56}, ! Handle
  0.9.3;                                  ! Version Identifier

OS:SizingPeriod:DesignDay,
  {76bc7beb-b0d3-43cc-932d-2119ad128c4e}, ! Handle
  Brainerd Wieland Ann Clg 1% Condns WB=>MDB, ! Name
  27.7,                                   ! Maximum Dry-Bulb Temperature {C}
  11.7,                                   ! Daily Dry-Bulb Temperature Range {deltaC}
  22.9,                                   ! Humidity Indicating Conditions at Maximum Dry-Bulb {BasedOnField A3}
  96912,                                  ! Barometric Pressure {Pa}
  5.2,                                    ! Wind Speed {m/s}
  200,                                    ! Wind Direction {deg}
  0,                                      ! Sky Clearness
  0,                                      ! Rain Indicator
  0,                                      ! Snow Indicator
  21,                                     ! Day of Month
  7,                                      ! Month
  SummerDesignDay,                        ! Day Type
  0,                                      ! Daylight Saving Time Indicator
  Wetbulb,                                ! Humidity Indicating Type
  ,                                       ! Humidity Indicating Day Schedule Name
  DefaultMultipliers,                     ! Dry-Bulb Temperature Range Modifier Type
  ,                                       ! Dry-Bulb Temperature Range Modifier Schedule Name
  ASHRAETau,                              ! Solar Model Indicator
  ,                                       ! Beam Solar Day Schedule Name
  ,                                       ! Diffuse Solar Day Schedule Name
  0.394,                                  ! ASHRAE Taub {dimensionless}
  2.249;                                  ! ASHRAE Taud {dimensionless}

OS:ComponentData,
  {9c9c1d5c-1475-409b-ab96-8257062aee12}, ! Handle
  Component Data 1,                       ! Name
  {bb7e9888-aba2-4d97-8cb0-cb30b60fcc7d}, ! UUID
  {45157ab5-0e21-4ff9-9557-8b5fae8ea853}, ! Version UUID
  1366308171,                             ! Creation Timestamp
  1366308171,                             ! Version Timestamp
  {76bc7beb-b0d3-43cc-932d-2119ad128c4e}; ! Name of Object 1

