
OS:Version,
  {77056d57-df59-45cf-b195-c592b96fa9c8}, ! Handle
  0.9.3;                                  ! Version Identifier

OS:SizingPeriod:DesignDay,
  {81de9ba9-b1eb-46a3-a079-54316d382120}, ! Handle
  Cadillac Wexford Co Ap Ann Htg Wind 99% Condns WS=>MCDB, ! Name
  -4.8,                                   ! Maximum Dry-Bulb Temperature {C}
  0,                                      ! Daily Dry-Bulb Temperature Range {deltaC}
  -4.8,                                   ! Humidity Indicating Conditions at Maximum Dry-Bulb {BasedOnField A3}
  96657,                                  ! Barometric Pressure {Pa}
  9.2,                                    ! Wind Speed {m/s}
  320,                                    ! Wind Direction {deg}
  0,                                      ! Sky Clearness
  0,                                      ! Rain Indicator
  0,                                      ! Snow Indicator
  21,                                     ! Day of Month
  1,                                      ! Month
  WinterDesignDay,                        ! Day Type
  0,                                      ! Daylight Saving Time Indicator
  Wetbulb,                                ! Humidity Indicating Type
  ,                                       ! Humidity Indicating Day Schedule Name
  DefaultMultipliers,                     ! Dry-Bulb Temperature Range Modifier Type
  ,                                       ! Dry-Bulb Temperature Range Modifier Schedule Name
  ASHRAEClearSky;                         ! Solar Model Indicator

OS:ComponentData,
  {e85e3c55-dd65-4a2a-be4e-32545e7fa200}, ! Handle
  Component Data 1,                       ! Name
  {24237d3e-ae48-46c9-8721-15b77ef28ec3}, ! UUID
  {d7712588-5b07-47ed-9fc3-5570aa8ea482}, ! Version UUID
  1366307962,                             ! Creation Timestamp
  1366307962,                             ! Version Timestamp
  {81de9ba9-b1eb-46a3-a079-54316d382120}; ! Name of Object 1

