
OS:Version,
  {85ce95c7-9d15-4239-b74c-9789563b7b6a}, ! Handle
  0.9.3;                                  ! Version Identifier

OS:SizingPeriod:DesignDay,
  {4f49ed0b-a8fd-428c-8615-d0a4cae059c8}, ! Handle
  Hancock Houghton Co Ap Ann Htg Wind 99% Condns WS=>MCDB, ! Name
  -7.9,                                   ! Maximum Dry-Bulb Temperature {C}
  0,                                      ! Daily Dry-Bulb Temperature Range {deltaC}
  -7.9,                                   ! Humidity Indicating Conditions at Maximum Dry-Bulb {BasedOnField A3}
  97458,                                  ! Barometric Pressure {Pa}
  12,                                     ! Wind Speed {m/s}
  310,                                    ! Wind Direction {deg}
  0,                                      ! Sky Clearness
  0,                                      ! Rain Indicator
  0,                                      ! Snow Indicator
  21,                                     ! Day of Month
  1,                                      ! Month
  WinterDesignDay,                        ! Day Type
  0,                                      ! Daylight Saving Time Indicator
  Wetbulb,                                ! Humidity Indicating Type
  ,                                       ! Humidity Indicating Day Schedule Name
  DefaultMultipliers,                     ! Dry-Bulb Temperature Range Modifier Type
  ,                                       ! Dry-Bulb Temperature Range Modifier Schedule Name
  ASHRAEClearSky;                         ! Solar Model Indicator

OS:ComponentData,
  {d599db35-262b-4750-98f3-bb025842a260}, ! Handle
  Component Data 1,                       ! Name
  {ad1f85af-0b0f-443b-bfcc-d8e2bc70e0f0}, ! UUID
  {12c181ec-e933-47df-ab7d-336d63730ad3}, ! Version UUID
  1366308021,                             ! Creation Timestamp
  1366308021,                             ! Version Timestamp
  {4f49ed0b-a8fd-428c-8615-d0a4cae059c8}; ! Name of Object 1

