
OS:Version,
  {4345ac82-dbe4-4cb9-a9ce-4cd2cc21d9e6}, ! Handle
  0.9.3;                                  ! Version Identifier

OS:SizingPeriod:DesignDay,
  {3b43fd12-2c6e-4fea-b6cc-6c096991d525}, ! Handle
  LAKE_CHARLES Ann Clg 2% Condns WB=>MDB, ! Name
  30.6,                                   ! Maximum Dry-Bulb Temperature {C}
  8.6,                                    ! Daily Dry-Bulb Temperature Range {deltaC}
  26.6,                                   ! Humidity Indicating Conditions at Maximum Dry-Bulb {BasedOnField A3}
  101289,                                 ! Barometric Pressure {Pa}
  3.3,                                    ! Wind Speed {m/s}
  230,                                    ! Wind Direction {deg}
  0,                                      ! Sky Clearness
  0,                                      ! Rain Indicator
  0,                                      ! Snow Indicator
  21,                                     ! Day of Month
  7,                                      ! Month
  SummerDesignDay,                        ! Day Type
  0,                                      ! Daylight Saving Time Indicator
  Wetbulb,                                ! Humidity Indicating Type
  ,                                       ! Humidity Indicating Day Schedule Name
  DefaultMultipliers,                     ! Dry-Bulb Temperature Range Modifier Type
  ,                                       ! Dry-Bulb Temperature Range Modifier Schedule Name
  ASHRAETau,                              ! Solar Model Indicator
  ,                                       ! Beam Solar Day Schedule Name
  ,                                       ! Diffuse Solar Day Schedule Name
  0.528,                                  ! ASHRAE Taub {dimensionless}
  1.904;                                  ! ASHRAE Taud {dimensionless}

OS:ComponentData,
  {6818eaff-7154-439d-856f-671608e5aeca}, ! Handle
  Component Data 1,                       ! Name
  {167d8677-2820-47b4-bdf7-2228353ac129}, ! UUID
  {0b4a0e1d-6ffd-4725-87f7-c6bc8ffd4b5d}, ! Version UUID
  1366307724,                             ! Creation Timestamp
  1366307724,                             ! Version Timestamp
  {3b43fd12-2c6e-4fea-b6cc-6c096991d525}; ! Name of Object 1

