
OS:Version,
  {f70fb7e9-14d4-4aca-aacc-7f1e9aeb32d9}, ! Handle
  0.9.3;                                  ! Version Identifier

OS:SizingPeriod:DesignDay,
  {d37feada-acef-49a1-8ded-d2e32f0a712e}, ! Handle
  Cotulla Faa Ap Ann Hum_n 99.6% Condns DP=>MCDB, ! Name
  6.7,                                    ! Maximum Dry-Bulb Temperature {C}
  0,                                      ! Daily Dry-Bulb Temperature Range {deltaC}
  -11.1,                                  ! Humidity Indicating Conditions at Maximum Dry-Bulb {BasedOnField A3}
  99643,                                  ! Barometric Pressure {Pa}
  2.2,                                    ! Wind Speed {m/s}
  20,                                     ! Wind Direction {deg}
  0,                                      ! Sky Clearness
  0,                                      ! Rain Indicator
  0,                                      ! Snow Indicator
  21,                                     ! Day of Month
  1,                                      ! Month
  WinterDesignDay,                        ! Day Type
  0,                                      ! Daylight Saving Time Indicator
  Dewpoint,                               ! Humidity Indicating Type
  ,                                       ! Humidity Indicating Day Schedule Name
  DefaultMultipliers,                     ! Dry-Bulb Temperature Range Modifier Type
  ,                                       ! Dry-Bulb Temperature Range Modifier Schedule Name
  ASHRAEClearSky;                         ! Solar Model Indicator

OS:ComponentData,
  {5473620b-a0ee-474c-831b-e5d706af0aa8}, ! Handle
  Component Data 1,                       ! Name
  {dc28d607-7eda-41cf-8df0-5cbd0f8b2fc8}, ! UUID
  {2e309282-c200-4430-b707-d4f768e529e3}, ! Version UUID
  1366310638,                             ! Creation Timestamp
  1366310638,                             ! Version Timestamp
  {d37feada-acef-49a1-8ded-d2e32f0a712e}; ! Name of Object 1

