
OS:Version,
  {0c4917ed-a341-4fd5-88b0-5ed42e4bcacf}, ! Handle
  0.9.3;                                  ! Version Identifier

OS:SizingPeriod:DesignDay,
  {42deb12b-02b1-4832-8ede-ca852ab455d3}, ! Handle
  Anniston Metropolitan Ap Ann Clg .4% Condns WB=>MDB, ! Name
  31.8,                                   ! Maximum Dry-Bulb Temperature {C}
  10.8,                                   ! Daily Dry-Bulb Temperature Range {deltaC}
  26.2,                                   ! Humidity Indicating Conditions at Maximum Dry-Bulb {BasedOnField A3}
  99110,                                  ! Barometric Pressure {Pa}
  3.2,                                    ! Wind Speed {m/s}
  270,                                    ! Wind Direction {deg}
  0,                                      ! Sky Clearness
  0,                                      ! Rain Indicator
  0,                                      ! Snow Indicator
  21,                                     ! Day of Month
  7,                                      ! Month
  SummerDesignDay,                        ! Day Type
  0,                                      ! Daylight Saving Time Indicator
  Wetbulb,                                ! Humidity Indicating Type
  ,                                       ! Humidity Indicating Day Schedule Name
  DefaultMultipliers,                     ! Dry-Bulb Temperature Range Modifier Type
  ,                                       ! Dry-Bulb Temperature Range Modifier Schedule Name
  ASHRAETau,                              ! Solar Model Indicator
  ,                                       ! Beam Solar Day Schedule Name
  ,                                       ! Diffuse Solar Day Schedule Name
  0.582,                                  ! ASHRAE Taub {dimensionless}
  1.728;                                  ! ASHRAE Taud {dimensionless}

OS:ComponentData,
  {90b84797-41aa-469e-a74c-118c2ed597a5}, ! Handle
  Component Data 1,                       ! Name
  {0e98806f-056e-48ab-95a7-947d0e8d3e04}, ! UUID
  {87bd781e-1f36-453d-b51c-458a92d52e5f}, ! Version UUID
  1366305634,                             ! Creation Timestamp
  1366305634,                             ! Version Timestamp
  {42deb12b-02b1-4832-8ede-ca852ab455d3}; ! Name of Object 1

