
OS:Version,
  {14294c3a-e50d-4160-8ec3-b84b09a6791e}, ! Handle
  0.9.3;                                  ! Version Identifier

OS:SizingPeriod:DesignDay,
  {23f2ba4d-7f3d-4758-ba20-f737ad06b69b}, ! Handle
  Huntsville Intl Jones Field Ann Hum_n 99% Condns DP=>MCDB, ! Name
  -3.2,                                   ! Maximum Dry-Bulb Temperature {C}
  0,                                      ! Daily Dry-Bulb Temperature Range {deltaC}
  -11.8,                                  ! Humidity Indicating Conditions at Maximum Dry-Bulb {BasedOnField A3}
  99063,                                  ! Barometric Pressure {Pa}
  3.8,                                    ! Wind Speed {m/s}
  340,                                    ! Wind Direction {deg}
  0,                                      ! Sky Clearness
  0,                                      ! Rain Indicator
  0,                                      ! Snow Indicator
  21,                                     ! Day of Month
  1,                                      ! Month
  WinterDesignDay,                        ! Day Type
  0,                                      ! Daylight Saving Time Indicator
  Dewpoint,                               ! Humidity Indicating Type
  ,                                       ! Humidity Indicating Day Schedule Name
  DefaultMultipliers,                     ! Dry-Bulb Temperature Range Modifier Type
  ,                                       ! Dry-Bulb Temperature Range Modifier Schedule Name
  ASHRAEClearSky;                         ! Solar Model Indicator

OS:ComponentData,
  {d7a794fa-40a5-4228-8736-fb96f76eab58}, ! Handle
  Component Data 1,                       ! Name
  {780d729f-0287-48b0-b9ed-d8a57d58e872}, ! UUID
  {05497dbd-d310-48c7-aa83-4cd5130b7afa}, ! Version UUID
  1366305670,                             ! Creation Timestamp
  1366305670,                             ! Version Timestamp
  {23f2ba4d-7f3d-4758-ba20-f737ad06b69b}; ! Name of Object 1

