
OS:Version,
  {adaa26b3-0552-4e49-9c12-116a6bffa696}, ! Handle
  0.9.3;                                  ! Version Identifier

OS:SizingPeriod:DesignDay,
  {9ddc6680-3b48-416d-9fb7-2f3170b89113}, ! Handle
  Fresno Ann Htg 99% Condns DB,           ! Name
  0.9,                                    ! Maximum Dry-Bulb Temperature {C}
  0,                                      ! Daily Dry-Bulb Temperature Range {deltaC}
  0.9,                                    ! Humidity Indicating Conditions at Maximum Dry-Bulb {BasedOnField A3}
  100129,                                 ! Barometric Pressure {Pa}
  1.2,                                    ! Wind Speed {m/s}
  80,                                     ! Wind Direction {deg}
  0,                                      ! Sky Clearness
  0,                                      ! Rain Indicator
  0,                                      ! Snow Indicator
  21,                                     ! Day of Month
  12,                                     ! Month
  WinterDesignDay,                        ! Day Type
  0,                                      ! Daylight Saving Time Indicator
  Wetbulb,                                ! Humidity Indicating Type
  ,                                       ! Humidity Indicating Day Schedule Name
  DefaultMultipliers,                     ! Dry-Bulb Temperature Range Modifier Type
  ,                                       ! Dry-Bulb Temperature Range Modifier Schedule Name
  ASHRAEClearSky;                         ! Solar Model Indicator

OS:ComponentData,
  {bd9f8018-dd2b-4dd0-bc37-df07e2d2f60c}, ! Handle
  Component Data 1,                       ! Name
  {2da4d913-4999-4271-8a3b-389826251684}, ! UUID
  {27bc9b44-62b6-4dcb-a7ff-8e6bec942411}, ! Version UUID
  1366306435,                             ! Creation Timestamp
  1366306435,                             ! Version Timestamp
  {9ddc6680-3b48-416d-9fb7-2f3170b89113}; ! Name of Object 1

