
OS:Version,
  {46f3f2f0-a637-436a-bc65-d97479e5b7a7}, ! Handle
  0.9.3;                                  ! Version Identifier

OS:SizingPeriod:DesignDay,
  {c8e4925a-f879-40f5-b28e-462e69cd1369}, ! Handle
  Joplin Municipal Ap Ann Clg 2% Condns WB=>MDB, ! Name
  31.1,                                   ! Maximum Dry-Bulb Temperature {C}
  10.8,                                   ! Daily Dry-Bulb Temperature Range {deltaC}
  24.8,                                   ! Humidity Indicating Conditions at Maximum Dry-Bulb {BasedOnField A3}
  97808,                                  ! Barometric Pressure {Pa}
  4.8,                                    ! Wind Speed {m/s}
  210,                                    ! Wind Direction {deg}
  0,                                      ! Sky Clearness
  0,                                      ! Rain Indicator
  0,                                      ! Snow Indicator
  21,                                     ! Day of Month
  7,                                      ! Month
  SummerDesignDay,                        ! Day Type
  0,                                      ! Daylight Saving Time Indicator
  Wetbulb,                                ! Humidity Indicating Type
  ,                                       ! Humidity Indicating Day Schedule Name
  DefaultMultipliers,                     ! Dry-Bulb Temperature Range Modifier Type
  ,                                       ! Dry-Bulb Temperature Range Modifier Schedule Name
  ASHRAETau,                              ! Solar Model Indicator
  ,                                       ! Beam Solar Day Schedule Name
  ,                                       ! Diffuse Solar Day Schedule Name
  0.446,                                  ! ASHRAE Taub {dimensionless}
  2.122;                                  ! ASHRAE Taud {dimensionless}

OS:ComponentData,
  {5aad4386-dde3-438c-9115-264cdf379459}, ! Handle
  Component Data 1,                       ! Name
  {9838964e-eca5-4234-a391-2756aaad0c8b}, ! UUID
  {6eb3b56f-abb4-46fc-8953-e81161c1d9ff}, ! Version UUID
  1366308508,                             ! Creation Timestamp
  1366308508,                             ! Version Timestamp
  {c8e4925a-f879-40f5-b28e-462e69cd1369}; ! Name of Object 1

