
OS:Version,
  {f0e0ff2f-2de4-4f1b-b688-565f9df1fccb}, ! Handle
  0.9.3;                                  ! Version Identifier

OS:SizingPeriod:DesignDay,
  {84201b25-79ad-4dbc-9265-18c3d3a3cd52}, ! Handle
  Leesburg Godfrey Ann Htg Wind 99% Condns WS=>MCDB, ! Name
  0.5,                                    ! Maximum Dry-Bulb Temperature {C}
  0,                                      ! Daily Dry-Bulb Temperature Range {deltaC}
  0.5,                                    ! Humidity Indicating Conditions at Maximum Dry-Bulb {BasedOnField A3}
  99904,                                  ! Barometric Pressure {Pa}
  11.1,                                   ! Wind Speed {m/s}
  330,                                    ! Wind Direction {deg}
  0,                                      ! Sky Clearness
  0,                                      ! Rain Indicator
  0,                                      ! Snow Indicator
  21,                                     ! Day of Month
  1,                                      ! Month
  WinterDesignDay,                        ! Day Type
  0,                                      ! Daylight Saving Time Indicator
  Wetbulb,                                ! Humidity Indicating Type
  ,                                       ! Humidity Indicating Day Schedule Name
  DefaultMultipliers,                     ! Dry-Bulb Temperature Range Modifier Type
  ,                                       ! Dry-Bulb Temperature Range Modifier Schedule Name
  ASHRAEClearSky;                         ! Solar Model Indicator

OS:ComponentData,
  {0c0f05d6-c72d-46f5-8312-a8ac21c20c09}, ! Handle
  Component Data 1,                       ! Name
  {7ac0a221-d421-4b1b-99db-bf11b8ea46ac}, ! UUID
  {676777ea-7100-4dc3-ba1c-acebfbb88e0a}, ! Version UUID
  1366311075,                             ! Creation Timestamp
  1366311075,                             ! Version Timestamp
  {84201b25-79ad-4dbc-9265-18c3d3a3cd52}; ! Name of Object 1

