
OS:Version,
  {1f7ee52b-90ff-4f8c-a748-5d3e9889fcea}, ! Handle
  0.9.3;                                  ! Version Identifier

OS:SizingPeriod:DesignDay,
  {20882f86-0ae6-4230-90db-68b142fa8de2}, ! Handle
  CHARLESTON Ann Clg .4% Condns DB=>MWB,  ! Name
  32.9,                                   ! Maximum Dry-Bulb Temperature {C}
  10.7,                                   ! Daily Dry-Bulb Temperature Range {deltaC}
  23,                                     ! Humidity Indicating Conditions at Maximum Dry-Bulb {BasedOnField A3}
  97889,                                  ! Barometric Pressure {Pa}
  2.9,                                    ! Wind Speed {m/s}
  240,                                    ! Wind Direction {deg}
  0,                                      ! Sky Clearness
  0,                                      ! Rain Indicator
  0,                                      ! Snow Indicator
  21,                                     ! Day of Month
  7,                                      ! Month
  SummerDesignDay,                        ! Day Type
  0,                                      ! Daylight Saving Time Indicator
  Wetbulb,                                ! Humidity Indicating Type
  ,                                       ! Humidity Indicating Day Schedule Name
  DefaultMultipliers,                     ! Dry-Bulb Temperature Range Modifier Type
  ,                                       ! Dry-Bulb Temperature Range Modifier Schedule Name
  ASHRAETau,                              ! Solar Model Indicator
  ,                                       ! Beam Solar Day Schedule Name
  ,                                       ! Diffuse Solar Day Schedule Name
  0.513,                                  ! ASHRAE Taub {dimensionless}
  1.859;                                  ! ASHRAE Taud {dimensionless}

OS:ComponentData,
  {d64460b7-4f4b-4122-a09b-66de63859f76}, ! Handle
  Component Data 1,                       ! Name
  {3d291416-2a61-4d4b-b661-2760c2393a5a}, ! UUID
  {32676055-8319-43cc-9eb3-6ad98d3ea65e}, ! Version UUID
  1366311630,                             ! Creation Timestamp
  1366311630,                             ! Version Timestamp
  {20882f86-0ae6-4230-90db-68b142fa8de2}; ! Name of Object 1

