
OS:Version,
  {d226a76a-af96-4c41-a2e6-4266988f92f2}, ! Handle
  0.9.3;                                  ! Version Identifier

OS:SizingPeriod:DesignDay,
  {82dba001-d7c1-430c-b5e5-daac33ffb111}, ! Handle
  Anchorage Merrill Field Ann Clg 2% Condns Enth=>MDB, ! Name
  18.5,                                   ! Maximum Dry-Bulb Temperature {C}
  6.8,                                    ! Daily Dry-Bulb Temperature Range {deltaC}
  41000,                                  ! Humidity Indicating Conditions at Maximum Dry-Bulb {BasedOnField A3}
  100821,                                 ! Barometric Pressure {Pa}
  2.8,                                    ! Wind Speed {m/s}
  270,                                    ! Wind Direction {deg}
  0,                                      ! Sky Clearness
  0,                                      ! Rain Indicator
  0,                                      ! Snow Indicator
  21,                                     ! Day of Month
  7,                                      ! Month
  SummerDesignDay,                        ! Day Type
  0,                                      ! Daylight Saving Time Indicator
  Enthalpy,                               ! Humidity Indicating Type
  ,                                       ! Humidity Indicating Day Schedule Name
  DefaultMultipliers,                     ! Dry-Bulb Temperature Range Modifier Type
  ,                                       ! Dry-Bulb Temperature Range Modifier Schedule Name
  ASHRAETau,                              ! Solar Model Indicator
  ,                                       ! Beam Solar Day Schedule Name
  ,                                       ! Diffuse Solar Day Schedule Name
  0.39,                                   ! ASHRAE Taub {dimensionless}
  2.155;                                  ! ASHRAE Taud {dimensionless}

OS:ComponentData,
  {f95b6f59-0382-4a97-969c-9493d969d963}, ! Handle
  Component Data 1,                       ! Name
  {d2af6434-ebb1-4f3a-af18-4293d63475e8}, ! UUID
  {d7aa61f2-2646-48ec-97cf-73866e4bc0bd}, ! Version UUID
  1366304702,                             ! Creation Timestamp
  1366304702,                             ! Version Timestamp
  {82dba001-d7c1-430c-b5e5-daac33ffb111}; ! Name of Object 1

