
OS:Version,
  {3852986c-ed15-48a2-ae40-ecb38f80b3bc}, ! Handle
  0.9.3;                                  ! Version Identifier

OS:SizingPeriod:DesignDay,
  {97344987-65bc-4032-a62e-98617568ab69}, ! Handle
  COLUMBUS Ann Clg 1% Condns DP=>MDB,     ! Name
  27.4,                                   ! Maximum Dry-Bulb Temperature {C}
  10.1,                                   ! Daily Dry-Bulb Temperature Range {deltaC}
  23.7,                                   ! Humidity Indicating Conditions at Maximum Dry-Bulb {BasedOnField A3}
  99702,                                  ! Barometric Pressure {Pa}
  3.7,                                    ! Wind Speed {m/s}
  270,                                    ! Wind Direction {deg}
  0,                                      ! Sky Clearness
  0,                                      ! Rain Indicator
  0,                                      ! Snow Indicator
  21,                                     ! Day of Month
  7,                                      ! Month
  SummerDesignDay,                        ! Day Type
  0,                                      ! Daylight Saving Time Indicator
  Dewpoint,                               ! Humidity Indicating Type
  ,                                       ! Humidity Indicating Day Schedule Name
  DefaultMultipliers,                     ! Dry-Bulb Temperature Range Modifier Type
  ,                                       ! Dry-Bulb Temperature Range Modifier Schedule Name
  ASHRAETau,                              ! Solar Model Indicator
  ,                                       ! Beam Solar Day Schedule Name
  ,                                       ! Diffuse Solar Day Schedule Name
  0.564,                                  ! ASHRAE Taub {dimensionless}
  1.778;                                  ! ASHRAE Taud {dimensionless}

OS:ComponentData,
  {1655711d-74ce-47ee-9bb7-a0f7ea18bdbe}, ! Handle
  Component Data 1,                       ! Name
  {160996b6-489b-4bd3-a045-74d1b8f1c06b}, ! UUID
  {72a9caf6-6633-4f4b-a75e-ebb0b288a150}, ! Version UUID
  1366307001,                             ! Creation Timestamp
  1366307001,                             ! Version Timestamp
  {97344987-65bc-4032-a62e-98617568ab69}; ! Name of Object 1

