
OS:Version,
  {11afeecb-96e7-4cff-86e4-7143bc179d97}, ! Handle
  0.9.3;                                  ! Version Identifier

OS:SizingPeriod:DesignDay,
  {afdbd369-3be8-428e-848c-7cee96c34736}, ! Handle
  Bethel Ann Htg Wind 99.6% Condns WS=>MCDB, ! Name
  -7.3,                                   ! Maximum Dry-Bulb Temperature {C}
  0,                                      ! Daily Dry-Bulb Temperature Range {deltaC}
  -7.3,                                   ! Humidity Indicating Conditions at Maximum Dry-Bulb {BasedOnField A3}
  100774,                                 ! Barometric Pressure {Pa}
  16.3,                                   ! Wind Speed {m/s}
  20,                                     ! Wind Direction {deg}
  0,                                      ! Sky Clearness
  0,                                      ! Rain Indicator
  0,                                      ! Snow Indicator
  21,                                     ! Day of Month
  1,                                      ! Month
  WinterDesignDay,                        ! Day Type
  0,                                      ! Daylight Saving Time Indicator
  Wetbulb,                                ! Humidity Indicating Type
  ,                                       ! Humidity Indicating Day Schedule Name
  DefaultMultipliers,                     ! Dry-Bulb Temperature Range Modifier Type
  ,                                       ! Dry-Bulb Temperature Range Modifier Schedule Name
  ASHRAEClearSky;                         ! Solar Model Indicator

OS:ComponentData,
  {516acc55-9486-4215-88ba-daa46074ad90}, ! Handle
  Component Data 1,                       ! Name
  {c73133bd-c4ef-494d-a75c-14b39544c337}, ! UUID
  {4a345f2a-36f4-41f2-905b-96b89607f24d}, ! Version UUID
  1366304750,                             ! Creation Timestamp
  1366304750,                             ! Version Timestamp
  {afdbd369-3be8-428e-848c-7cee96c34736}; ! Name of Object 1

