
OS:Version,
  {c30ba637-d2fd-44ef-a9b5-38f14000520b}, ! Handle
  0.9.3;                                  ! Version Identifier

OS:SizingPeriod:DesignDay,
  {d0793db2-7391-49d0-9138-378edc251f6b}, ! Handle
  Chicago Midway Ap Ann Clg 2% Condns WB=>MDB, ! Name
  28.4,                                   ! Maximum Dry-Bulb Temperature {C}
  8.8,                                    ! Daily Dry-Bulb Temperature Range {deltaC}
  23.6,                                   ! Humidity Indicating Conditions at Maximum Dry-Bulb {BasedOnField A3}
  99110,                                  ! Barometric Pressure {Pa}
  5.6,                                    ! Wind Speed {m/s}
  220,                                    ! Wind Direction {deg}
  0,                                      ! Sky Clearness
  0,                                      ! Rain Indicator
  0,                                      ! Snow Indicator
  21,                                     ! Day of Month
  7,                                      ! Month
  SummerDesignDay,                        ! Day Type
  0,                                      ! Daylight Saving Time Indicator
  Wetbulb,                                ! Humidity Indicating Type
  ,                                       ! Humidity Indicating Day Schedule Name
  DefaultMultipliers,                     ! Dry-Bulb Temperature Range Modifier Type
  ,                                       ! Dry-Bulb Temperature Range Modifier Schedule Name
  ASHRAETau,                              ! Solar Model Indicator
  ,                                       ! Beam Solar Day Schedule Name
  ,                                       ! Diffuse Solar Day Schedule Name
  0.457,                                  ! ASHRAE Taub {dimensionless}
  2.043;                                  ! ASHRAE Taud {dimensionless}

OS:ComponentData,
  {2197dc26-9847-4273-9b94-f3c35db4975d}, ! Handle
  Component Data 1,                       ! Name
  {264161eb-32c4-40e7-8a74-739201ab3a30}, ! UUID
  {7ab0dbc6-ad12-4c50-b1e6-d5c68cc216dd}, ! Version UUID
  1366307343,                             ! Creation Timestamp
  1366307343,                             ! Version Timestamp
  {d0793db2-7391-49d0-9138-378edc251f6b}; ! Name of Object 1

