
OS:Version,
  {0052e666-48e1-4d39-8be1-a788ef72e31c}, ! Handle
  0.9.3;                                  ! Version Identifier

OS:SizingPeriod:DesignDay,
  {a63b57f6-3fff-43b5-a453-a90650d37df9}, ! Handle
  Beaufort Mcas Ann Clg 1% Condns WB=>MDB, ! Name
  31,                                     ! Maximum Dry-Bulb Temperature {C}
  9,                                      ! Daily Dry-Bulb Temperature Range {deltaC}
  26.7,                                   ! Humidity Indicating Conditions at Maximum Dry-Bulb {BasedOnField A3}
  101205,                                 ! Barometric Pressure {Pa}
  3.1,                                    ! Wind Speed {m/s}
  270,                                    ! Wind Direction {deg}
  0,                                      ! Sky Clearness
  0,                                      ! Rain Indicator
  0,                                      ! Snow Indicator
  21,                                     ! Day of Month
  7,                                      ! Month
  SummerDesignDay,                        ! Day Type
  0,                                      ! Daylight Saving Time Indicator
  Wetbulb,                                ! Humidity Indicating Type
  ,                                       ! Humidity Indicating Day Schedule Name
  DefaultMultipliers,                     ! Dry-Bulb Temperature Range Modifier Type
  ,                                       ! Dry-Bulb Temperature Range Modifier Schedule Name
  ASHRAETau,                              ! Solar Model Indicator
  ,                                       ! Beam Solar Day Schedule Name
  ,                                       ! Diffuse Solar Day Schedule Name
  0.554,                                  ! ASHRAE Taub {dimensionless}
  1.819;                                  ! ASHRAE Taud {dimensionless}

OS:ComponentData,
  {43b1a3bf-9931-4742-9ff2-4daa242cce1e}, ! Handle
  Component Data 1,                       ! Name
  {9c259d20-a796-456d-8779-7a11da920da1}, ! UUID
  {303b2560-6e60-45e5-9337-220a7e2bbdf7}, ! Version UUID
  1366310318,                             ! Creation Timestamp
  1366310318,                             ! Version Timestamp
  {a63b57f6-3fff-43b5-a453-a90650d37df9}; ! Name of Object 1

