
OS:Version,
  {0420ee7d-c45d-4224-98f1-f66510cb38e4}, ! Handle
  0.9.3;                                  ! Version Identifier

OS:SizingPeriod:DesignDay,
  {6766823a-ef6f-4681-bce1-69cfba0560c8}, ! Handle
  England Afb Ann Clg 1% Condns DB=>MWB,  ! Name
  34.2,                                   ! Maximum Dry-Bulb Temperature {C}
  10.3,                                   ! Daily Dry-Bulb Temperature Range {deltaC}
  25.1,                                   ! Humidity Indicating Conditions at Maximum Dry-Bulb {BasedOnField A3}
  101001,                                 ! Barometric Pressure {Pa}
  2.5,                                    ! Wind Speed {m/s}
  0,                                      ! Wind Direction {deg}
  0,                                      ! Sky Clearness
  0,                                      ! Rain Indicator
  0,                                      ! Snow Indicator
  21,                                     ! Day of Month
  7,                                      ! Month
  SummerDesignDay,                        ! Day Type
  0,                                      ! Daylight Saving Time Indicator
  Wetbulb,                                ! Humidity Indicating Type
  ,                                       ! Humidity Indicating Day Schedule Name
  DefaultMultipliers,                     ! Dry-Bulb Temperature Range Modifier Type
  ,                                       ! Dry-Bulb Temperature Range Modifier Schedule Name
  ASHRAETau,                              ! Solar Model Indicator
  ,                                       ! Beam Solar Day Schedule Name
  ,                                       ! Diffuse Solar Day Schedule Name
  0.52,                                   ! ASHRAE Taub {dimensionless}
  1.911;                                  ! ASHRAE Taud {dimensionless}

OS:ComponentData,
  {6397d481-f3fb-4dad-87b2-82d2acb675ab}, ! Handle
  Component Data 1,                       ! Name
  {e858e52b-7ff8-4962-ae5e-74544aa863a0}, ! UUID
  {96d9bb0f-0038-4e85-a230-eb6cfe90a9d4}, ! Version UUID
  1366307691,                             ! Creation Timestamp
  1366307691,                             ! Version Timestamp
  {6766823a-ef6f-4681-bce1-69cfba0560c8}; ! Name of Object 1

