
OS:Version,
  {2acfeb7c-b75b-4c2e-b281-256338157bea}, ! Handle
  0.9.3;                                  ! Version Identifier

OS:SizingPeriod:DesignDay,
  {a1cc915f-6f0f-406e-9c9c-469e0f858c9e}, ! Handle
  Ketchikan Intl Ap Ann Clg 2% Condns DP=>MDB, ! Name
  15.9,                                   ! Maximum Dry-Bulb Temperature {C}
  5.8,                                    ! Daily Dry-Bulb Temperature Range {deltaC}
  13.6,                                   ! Humidity Indicating Conditions at Maximum Dry-Bulb {BasedOnField A3}
  101049,                                 ! Barometric Pressure {Pa}
  4.6,                                    ! Wind Speed {m/s}
  320,                                    ! Wind Direction {deg}
  0,                                      ! Sky Clearness
  0,                                      ! Rain Indicator
  0,                                      ! Snow Indicator
  21,                                     ! Day of Month
  8,                                      ! Month
  SummerDesignDay,                        ! Day Type
  0,                                      ! Daylight Saving Time Indicator
  Dewpoint,                               ! Humidity Indicating Type
  ,                                       ! Humidity Indicating Day Schedule Name
  DefaultMultipliers,                     ! Dry-Bulb Temperature Range Modifier Type
  ,                                       ! Dry-Bulb Temperature Range Modifier Schedule Name
  ASHRAETau,                              ! Solar Model Indicator
  ,                                       ! Beam Solar Day Schedule Name
  ,                                       ! Diffuse Solar Day Schedule Name
  0.369,                                  ! ASHRAE Taub {dimensionless}
  2.37;                                   ! ASHRAE Taud {dimensionless}

OS:ComponentData,
  {b6c05182-f3f7-4f64-a826-2b272bd556dc}, ! Handle
  Component Data 1,                       ! Name
  {87fe32c0-f768-4c77-be19-8279a9a50e8a}, ! UUID
  {522876cd-0bca-4cd5-b809-c82d6a71810c}, ! Version UUID
  1366305355,                             ! Creation Timestamp
  1366305355,                             ! Version Timestamp
  {a1cc915f-6f0f-406e-9c9c-469e0f858c9e}; ! Name of Object 1

