
OS:Version,
  {5a8baa57-2377-4946-b449-fb2f751bb4f4}, ! Handle
  0.9.3;                                  ! Version Identifier

OS:SizingPeriod:DesignDay,
  {b908b60c-1984-406d-8497-00e21b2cdbe6}, ! Handle
  Chattanooga Ann Htg 99.6% Condns DB,    ! Name
  -7.9,                                   ! Maximum Dry-Bulb Temperature {C}
  0,                                      ! Daily Dry-Bulb Temperature Range {deltaC}
  -7.9,                                   ! Humidity Indicating Conditions at Maximum Dry-Bulb {BasedOnField A3}
  98828,                                  ! Barometric Pressure {Pa}
  2.9,                                    ! Wind Speed {m/s}
  0,                                      ! Wind Direction {deg}
  0,                                      ! Sky Clearness
  0,                                      ! Rain Indicator
  0,                                      ! Snow Indicator
  21,                                     ! Day of Month
  1,                                      ! Month
  WinterDesignDay,                        ! Day Type
  0,                                      ! Daylight Saving Time Indicator
  Wetbulb,                                ! Humidity Indicating Type
  ,                                       ! Humidity Indicating Day Schedule Name
  DefaultMultipliers,                     ! Dry-Bulb Temperature Range Modifier Type
  ,                                       ! Dry-Bulb Temperature Range Modifier Schedule Name
  ASHRAEClearSky;                         ! Solar Model Indicator

OS:ComponentData,
  {7734b1d9-215c-4939-bff5-73f702d9102d}, ! Handle
  Component Data 1,                       ! Name
  {3ae4a5e6-f108-4e46-aa5a-6f83abfc36ff}, ! UUID
  {4aca9651-8dd2-4d38-9ccf-7d9f64669380}, ! Version UUID
  1366310483,                             ! Creation Timestamp
  1366310483,                             ! Version Timestamp
  {b908b60c-1984-406d-8497-00e21b2cdbe6}; ! Name of Object 1

