
OS:Version,
  {84b04dca-2bc9-43e8-8ef1-041d2b0afa3e}, ! Handle
  0.9.3;                                  ! Version Identifier

OS:SizingPeriod:DesignDay,
  {e311803d-d9e5-4666-a099-1023a3883ce7}, ! Handle
  Dover Afb Ann Clg 1% Condns WB=>MDB,    ! Name
  29.6,                                   ! Maximum Dry-Bulb Temperature {C}
  9.1,                                    ! Daily Dry-Bulb Temperature Range {deltaC}
  25.3,                                   ! Humidity Indicating Conditions at Maximum Dry-Bulb {BasedOnField A3}
  101241,                                 ! Barometric Pressure {Pa}
  4.2,                                    ! Wind Speed {m/s}
  240,                                    ! Wind Direction {deg}
  0,                                      ! Sky Clearness
  0,                                      ! Rain Indicator
  0,                                      ! Snow Indicator
  21,                                     ! Day of Month
  7,                                      ! Month
  SummerDesignDay,                        ! Day Type
  0,                                      ! Daylight Saving Time Indicator
  Wetbulb,                                ! Humidity Indicating Type
  ,                                       ! Humidity Indicating Day Schedule Name
  DefaultMultipliers,                     ! Dry-Bulb Temperature Range Modifier Type
  ,                                       ! Dry-Bulb Temperature Range Modifier Schedule Name
  ASHRAETau,                              ! Solar Model Indicator
  ,                                       ! Beam Solar Day Schedule Name
  ,                                       ! Diffuse Solar Day Schedule Name
  0.575,                                  ! ASHRAE Taub {dimensionless}
  1.719;                                  ! ASHRAE Taud {dimensionless}

OS:ComponentData,
  {c684fec8-d4b4-4a43-a111-0cbadeef44a5}, ! Handle
  Component Data 1,                       ! Name
  {6567d45e-fc4f-4b7e-8b9d-dae28104dcf6}, ! UUID
  {cd576ad4-2cc5-42cb-90cf-5c227c170163}, ! Version UUID
  1366306770,                             ! Creation Timestamp
  1366306770,                             ! Version Timestamp
  {e311803d-d9e5-4666-a099-1023a3883ce7}; ! Name of Object 1

