
OS:Version,
  {98b86167-ddb7-4e98-9a91-93f2445e6edc}, ! Handle
  0.9.3;                                  ! Version Identifier

OS:SizingPeriod:DesignDay,
  {732dc322-eb2d-404c-9ff0-09ee8ce31909}, ! Handle
  Harrison Marion Rgn Ann Hum_n 99.6% Condns DP=>MCDB, ! Name
  -10.2,                                  ! Maximum Dry-Bulb Temperature {C}
  0,                                      ! Daily Dry-Bulb Temperature Range {deltaC}
  -17.7,                                  ! Humidity Indicating Conditions at Maximum Dry-Bulb {BasedOnField A3}
  96842,                                  ! Barometric Pressure {Pa}
  2.5,                                    ! Wind Speed {m/s}
  250,                                    ! Wind Direction {deg}
  0,                                      ! Sky Clearness
  0,                                      ! Rain Indicator
  0,                                      ! Snow Indicator
  21,                                     ! Day of Month
  1,                                      ! Month
  WinterDesignDay,                        ! Day Type
  0,                                      ! Daylight Saving Time Indicator
  Dewpoint,                               ! Humidity Indicating Type
  ,                                       ! Humidity Indicating Day Schedule Name
  DefaultMultipliers,                     ! Dry-Bulb Temperature Range Modifier Type
  ,                                       ! Dry-Bulb Temperature Range Modifier Schedule Name
  ASHRAEClearSky;                         ! Solar Model Indicator

OS:ComponentData,
  {f9445906-9bc4-4bc4-924c-13a6398d5a1e}, ! Handle
  Component Data 1,                       ! Name
  {f2868d4f-a97c-41bf-8bac-971fcc3f562c}, ! UUID
  {66d4b1d3-60d6-4b8a-90b1-14beccd58269}, ! Version UUID
  1366311635,                             ! Creation Timestamp
  1366311635,                             ! Version Timestamp
  {732dc322-eb2d-404c-9ff0-09ee8ce31909}; ! Name of Object 1

