
OS:Version,
  {07480db2-3552-48b7-b964-5dce09dfed25}, ! Handle
  0.9.3;                                  ! Version Identifier

OS:SizingPeriod:DesignDay,
  {74624936-7ed8-4c6b-8efe-a3c5920a0bd6}, ! Handle
  Lamar Municipal Ann Clg 2% Condns WB=>MDB, ! Name
  30,                                     ! Maximum Dry-Bulb Temperature {C}
  16.8,                                   ! Daily Dry-Bulb Temperature Range {deltaC}
  20.5,                                   ! Humidity Indicating Conditions at Maximum Dry-Bulb {BasedOnField A3}
  88477,                                  ! Barometric Pressure {Pa}
  5.8,                                    ! Wind Speed {m/s}
  180,                                    ! Wind Direction {deg}
  0,                                      ! Sky Clearness
  0,                                      ! Rain Indicator
  0,                                      ! Snow Indicator
  21,                                     ! Day of Month
  7,                                      ! Month
  SummerDesignDay,                        ! Day Type
  0,                                      ! Daylight Saving Time Indicator
  Wetbulb,                                ! Humidity Indicating Type
  ,                                       ! Humidity Indicating Day Schedule Name
  DefaultMultipliers,                     ! Dry-Bulb Temperature Range Modifier Type
  ,                                       ! Dry-Bulb Temperature Range Modifier Schedule Name
  ASHRAETau,                              ! Solar Model Indicator
  ,                                       ! Beam Solar Day Schedule Name
  ,                                       ! Diffuse Solar Day Schedule Name
  0.438,                                  ! ASHRAE Taub {dimensionless}
  1.984;                                  ! ASHRAE Taud {dimensionless}

OS:ComponentData,
  {ad07de0c-0f92-4d60-9504-01defd4e73d8}, ! Handle
  Component Data 1,                       ! Name
  {a745f3c7-c47e-42fb-93e2-47f2ff98fa93}, ! UUID
  {f694e931-8021-4eac-87ab-10274066bca8}, ! Version UUID
  1366306717,                             ! Creation Timestamp
  1366306717,                             ! Version Timestamp
  {74624936-7ed8-4c6b-8efe-a3c5920a0bd6}; ! Name of Object 1

