
OS:Version,
  {ed74a319-b5cb-4813-832e-75a7ac171e6b}, ! Handle
  0.9.3;                                  ! Version Identifier

OS:SizingPeriod:DesignDay,
  {c8fa9a15-30b0-410f-bb5c-0b4672e466b7}, ! Handle
  Corpus Christi Ann Htg Wind 99.6% Condns WS=>MCDB, ! Name
  20.3,                                   ! Maximum Dry-Bulb Temperature {C}
  0,                                      ! Daily Dry-Bulb Temperature Range {deltaC}
  20.3,                                   ! Humidity Indicating Conditions at Maximum Dry-Bulb {BasedOnField A3}
  101169,                                 ! Barometric Pressure {Pa}
  13.4,                                   ! Wind Speed {m/s}
  350,                                    ! Wind Direction {deg}
  0,                                      ! Sky Clearness
  0,                                      ! Rain Indicator
  0,                                      ! Snow Indicator
  21,                                     ! Day of Month
  1,                                      ! Month
  WinterDesignDay,                        ! Day Type
  0,                                      ! Daylight Saving Time Indicator
  Wetbulb,                                ! Humidity Indicating Type
  ,                                       ! Humidity Indicating Day Schedule Name
  DefaultMultipliers,                     ! Dry-Bulb Temperature Range Modifier Type
  ,                                       ! Dry-Bulb Temperature Range Modifier Schedule Name
  ASHRAEClearSky;                         ! Solar Model Indicator

OS:ComponentData,
  {cb90b580-1052-4368-8589-115fe59209f7}, ! Handle
  Component Data 1,                       ! Name
  {07affe21-edc1-4487-9d29-57bc6dbd0995}, ! UUID
  {a7c1e903-e6b9-4b68-88f1-1ce84ce4e9bb}, ! Version UUID
  1366310625,                             ! Creation Timestamp
  1366310625,                             ! Version Timestamp
  {c8fa9a15-30b0-410f-bb5c-0b4672e466b7}; ! Name of Object 1

