
OS:Version,
  {3e9b1219-0b8b-42e6-824d-1dc8df2b86da}, ! Handle
  0.9.3;                                  ! Version Identifier

OS:SizingPeriod:DesignDay,
  {de8e4bcf-5449-407e-985e-8cba5280d219}, ! Handle
  Bishop Airport Ann Clg .4% Condns DB=>MWB, ! Name
  38.2,                                   ! Maximum Dry-Bulb Temperature {C}
  21.9,                                   ! Daily Dry-Bulb Temperature Range {deltaC}
  17.5,                                   ! Humidity Indicating Conditions at Maximum Dry-Bulb {BasedOnField A3}
  87182,                                  ! Barometric Pressure {Pa}
  4.6,                                    ! Wind Speed {m/s}
  160,                                    ! Wind Direction {deg}
  0,                                      ! Sky Clearness
  0,                                      ! Rain Indicator
  0,                                      ! Snow Indicator
  21,                                     ! Day of Month
  7,                                      ! Month
  SummerDesignDay,                        ! Day Type
  0,                                      ! Daylight Saving Time Indicator
  Wetbulb,                                ! Humidity Indicating Type
  ,                                       ! Humidity Indicating Day Schedule Name
  DefaultMultipliers,                     ! Dry-Bulb Temperature Range Modifier Type
  ,                                       ! Dry-Bulb Temperature Range Modifier Schedule Name
  ASHRAETau,                              ! Solar Model Indicator
  ,                                       ! Beam Solar Day Schedule Name
  ,                                       ! Diffuse Solar Day Schedule Name
  0.509,                                  ! ASHRAE Taub {dimensionless}
  1.813;                                  ! ASHRAE Taud {dimensionless}

