
OS:Version,
  {b56003d3-f9a0-45ab-b078-442b1dd9a51c}, ! Handle
  0.9.3;                                  ! Version Identifier

OS:SizingPeriod:DesignDay,
  {8a6c32ad-f808-422f-b497-2b7459d52d75}, ! Handle
  Harrisburg Capital City Arpt Ann Clg 2% Condns DB=>MWB, ! Name
  30.4,                                   ! Maximum Dry-Bulb Temperature {C}
  10.8,                                   ! Daily Dry-Bulb Temperature Range {deltaC}
  21.9,                                   ! Humidity Indicating Conditions at Maximum Dry-Bulb {BasedOnField A3}
  100082,                                 ! Barometric Pressure {Pa}
  3.8,                                    ! Wind Speed {m/s}
  300,                                    ! Wind Direction {deg}
  0,                                      ! Sky Clearness
  0,                                      ! Rain Indicator
  0,                                      ! Snow Indicator
  21,                                     ! Day of Month
  7,                                      ! Month
  SummerDesignDay,                        ! Day Type
  0,                                      ! Daylight Saving Time Indicator
  Wetbulb,                                ! Humidity Indicating Type
  ,                                       ! Humidity Indicating Day Schedule Name
  DefaultMultipliers,                     ! Dry-Bulb Temperature Range Modifier Type
  ,                                       ! Dry-Bulb Temperature Range Modifier Schedule Name
  ASHRAETau,                              ! Solar Model Indicator
  ,                                       ! Beam Solar Day Schedule Name
  ,                                       ! Diffuse Solar Day Schedule Name
  0.519,                                  ! ASHRAE Taub {dimensionless}
  1.838;                                  ! ASHRAE Taud {dimensionless}

OS:ComponentData,
  {62863696-f414-4266-9605-c61731f190af}, ! Handle
  Component Data 1,                       ! Name
  {e86586f5-6a60-4015-b373-58033fce79dc}, ! UUID
  {8355cd66-076f-4414-a8a7-475607d2626e}, ! Version UUID
  1366310188,                             ! Creation Timestamp
  1366310188,                             ! Version Timestamp
  {8a6c32ad-f808-422f-b497-2b7459d52d75}; ! Name of Object 1

