
OS:Version,
  {67e5d571-3350-4b02-bfd6-d04ec09388fa}, ! Handle
  0.9.3;                                  ! Version Identifier

OS:SizingPeriod:DesignDay,
  {4132e75c-d348-4623-b1ad-0d14035a2b8f}, ! Handle
  Fort Knox Godman Aaf Ann Clg 1% Condns Enth=>MDB, ! Name
  30.6,                                   ! Maximum Dry-Bulb Temperature {C}
  10.7,                                   ! Daily Dry-Bulb Temperature Range {deltaC}
  77800,                                  ! Humidity Indicating Conditions at Maximum Dry-Bulb {BasedOnField A3}
  98487,                                  ! Barometric Pressure {Pa}
  2.7,                                    ! Wind Speed {m/s}
  260,                                    ! Wind Direction {deg}
  0,                                      ! Sky Clearness
  0,                                      ! Rain Indicator
  0,                                      ! Snow Indicator
  21,                                     ! Day of Month
  7,                                      ! Month
  SummerDesignDay,                        ! Day Type
  0,                                      ! Daylight Saving Time Indicator
  Enthalpy,                               ! Humidity Indicating Type
  ,                                       ! Humidity Indicating Day Schedule Name
  DefaultMultipliers,                     ! Dry-Bulb Temperature Range Modifier Type
  ,                                       ! Dry-Bulb Temperature Range Modifier Schedule Name
  ASHRAETau,                              ! Solar Model Indicator
  ,                                       ! Beam Solar Day Schedule Name
  ,                                       ! Diffuse Solar Day Schedule Name
  0.505,                                  ! ASHRAE Taub {dimensionless}
  1.883;                                  ! ASHRAE Taud {dimensionless}

OS:ComponentData,
  {39cbbfcc-9290-41bf-9cf1-4db483e8849d}, ! Handle
  Component Data 1,                       ! Name
  {f289d54e-b738-42fe-9399-aea1c04385d5}, ! UUID
  {6d8b1c75-d0e2-41e4-9a9f-4c8e009463df}, ! Version UUID
  1366307634,                             ! Creation Timestamp
  1366307634,                             ! Version Timestamp
  {4132e75c-d348-4623-b1ad-0d14035a2b8f}; ! Name of Object 1

