
OS:Version,
  {f2decd5e-c5f8-4f52-9fcf-114509e4a9f6}, ! Handle
  0.9.3;                                  ! Version Identifier

OS:SizingPeriod:DesignDay,
  {8e3469f6-3739-4b79-90d0-2f076d802f81}, ! Handle
  Detroit Metropolitan Arpt Ann Clg .4% Condns DP=>MDB, ! Name
  28,                                     ! Maximum Dry-Bulb Temperature {C}
  10.4,                                   ! Daily Dry-Bulb Temperature Range {deltaC}
  23.2,                                   ! Humidity Indicating Conditions at Maximum Dry-Bulb {BasedOnField A3}
  99016,                                  ! Barometric Pressure {Pa}
  5.9,                                    ! Wind Speed {m/s}
  240,                                    ! Wind Direction {deg}
  0,                                      ! Sky Clearness
  0,                                      ! Rain Indicator
  0,                                      ! Snow Indicator
  21,                                     ! Day of Month
  7,                                      ! Month
  SummerDesignDay,                        ! Day Type
  0,                                      ! Daylight Saving Time Indicator
  Dewpoint,                               ! Humidity Indicating Type
  ,                                       ! Humidity Indicating Day Schedule Name
  DefaultMultipliers,                     ! Dry-Bulb Temperature Range Modifier Type
  ,                                       ! Dry-Bulb Temperature Range Modifier Schedule Name
  ASHRAETau,                              ! Solar Model Indicator
  ,                                       ! Beam Solar Day Schedule Name
  ,                                       ! Diffuse Solar Day Schedule Name
  0.47,                                   ! ASHRAE Taub {dimensionless}
  1.978;                                  ! ASHRAE Taud {dimensionless}

OS:ComponentData,
  {b52ab77c-960f-468a-971f-e314e5dd3466}, ! Handle
  Component Data 1,                       ! Name
  {d8ed0dfa-e651-4dd5-9938-e514e382c98f}, ! UUID
  {f6f3892e-32ef-4294-a977-3d141b23a990}, ! Version UUID
  1366307988,                             ! Creation Timestamp
  1366307988,                             ! Version Timestamp
  {8e3469f6-3739-4b79-90d0-2f076d802f81}; ! Name of Object 1

