
OS:Version,
  {8fb69499-dad0-4dff-8354-2922b4178cd3}, ! Handle
  0.9.3;                                  ! Version Identifier

OS:SizingPeriod:DesignDay,
  {d2f70c65-d327-427e-acda-1a07af136866}, ! Handle
  Baker Municipal Ap Ann Clg 2% Condns WB=>MDB, ! Name
  28.4,                                   ! Maximum Dry-Bulb Temperature {C}
  19.6,                                   ! Daily Dry-Bulb Temperature Range {deltaC}
  16.8,                                   ! Humidity Indicating Conditions at Maximum Dry-Bulb {BasedOnField A3}
  89581,                                  ! Barometric Pressure {Pa}
  3.9,                                    ! Wind Speed {m/s}
  320,                                    ! Wind Direction {deg}
  0,                                      ! Sky Clearness
  0,                                      ! Rain Indicator
  0,                                      ! Snow Indicator
  21,                                     ! Day of Month
  7,                                      ! Month
  SummerDesignDay,                        ! Day Type
  0,                                      ! Daylight Saving Time Indicator
  Wetbulb,                                ! Humidity Indicating Type
  ,                                       ! Humidity Indicating Day Schedule Name
  DefaultMultipliers,                     ! Dry-Bulb Temperature Range Modifier Type
  ,                                       ! Dry-Bulb Temperature Range Modifier Schedule Name
  ASHRAETau,                              ! Solar Model Indicator
  ,                                       ! Beam Solar Day Schedule Name
  ,                                       ! Diffuse Solar Day Schedule Name
  0.363,                                  ! ASHRAE Taub {dimensionless}
  2.324;                                  ! ASHRAE Taud {dimensionless}

OS:ComponentData,
  {870abf4e-eb42-4e70-9c71-b0dd94c6d9fd}, ! Handle
  Component Data 1,                       ! Name
  {3f5b5f59-b8cb-4ed8-889c-12aba77f883c}, ! UUID
  {8f65bb85-6eec-4603-b43d-da98d1272dfa}, ! Version UUID
  1366309987,                             ! Creation Timestamp
  1366309987,                             ! Version Timestamp
  {d2f70c65-d327-427e-acda-1a07af136866}; ! Name of Object 1

