
OS:Version,
  {43356186-0d46-4a46-94e3-8758f2ff70ba}, ! Handle
  0.9.3;                                  ! Version Identifier

OS:SizingPeriod:DesignDay,
  {6206ee9c-94ed-4327-8738-b6c3ed1bc75d}, ! Handle
  KNOXVILLE Ann Htg 99.6% Condns DB,      ! Name
  -9.4,                                   ! Maximum Dry-Bulb Temperature {C}
  0,                                      ! Daily Dry-Bulb Temperature Range {deltaC}
  -9.4,                                   ! Humidity Indicating Conditions at Maximum Dry-Bulb {BasedOnField A3}
  97784,                                  ! Barometric Pressure {Pa}
  2.8,                                    ! Wind Speed {m/s}
  20,                                     ! Wind Direction {deg}
  0,                                      ! Sky Clearness
  0,                                      ! Rain Indicator
  0,                                      ! Snow Indicator
  21,                                     ! Day of Month
  1,                                      ! Month
  WinterDesignDay,                        ! Day Type
  0,                                      ! Daylight Saving Time Indicator
  Wetbulb,                                ! Humidity Indicating Type
  ,                                       ! Humidity Indicating Day Schedule Name
  DefaultMultipliers,                     ! Dry-Bulb Temperature Range Modifier Type
  ,                                       ! Dry-Bulb Temperature Range Modifier Schedule Name
  ASHRAEClearSky;                         ! Solar Model Indicator

OS:ComponentData,
  {1e3e0540-c2d4-4089-838f-a8efa6c4eb21}, ! Handle
  Component Data 1,                       ! Name
  {384dc86a-ee1a-464e-9148-f1af43ab6c57}, ! UUID
  {3bc772c8-1b92-4f66-99f1-575f91db7041}, ! Version UUID
  1366310516,                             ! Creation Timestamp
  1366310516,                             ! Version Timestamp
  {6206ee9c-94ed-4327-8738-b6c3ed1bc75d}; ! Name of Object 1

