
OS:Version,
  {b5a4a241-2f0e-4dc8-91d1-cbd3c748fa9f}, ! Handle
  0.9.3;                                  ! Version Identifier

OS:SizingPeriod:DesignDay,
  {708885a7-4730-467d-ac9f-f0d09da54d75}, ! Handle
  Georgetown  Awos Ann Clg 2% Condns Enth=>MDB, ! Name
  30.6,                                   ! Maximum Dry-Bulb Temperature {C}
  12.2,                                   ! Daily Dry-Bulb Temperature Range {deltaC}
  73600,                                  ! Humidity Indicating Conditions at Maximum Dry-Bulb {BasedOnField A3}
  98475,                                  ! Barometric Pressure {Pa}
  3.9,                                    ! Wind Speed {m/s}
  170,                                    ! Wind Direction {deg}
  0,                                      ! Sky Clearness
  0,                                      ! Rain Indicator
  0,                                      ! Snow Indicator
  21,                                     ! Day of Month
  8,                                      ! Month
  SummerDesignDay,                        ! Day Type
  0,                                      ! Daylight Saving Time Indicator
  Enthalpy,                               ! Humidity Indicating Type
  ,                                       ! Humidity Indicating Day Schedule Name
  DefaultMultipliers,                     ! Dry-Bulb Temperature Range Modifier Type
  ,                                       ! Dry-Bulb Temperature Range Modifier Schedule Name
  ASHRAETau,                              ! Solar Model Indicator
  ,                                       ! Beam Solar Day Schedule Name
  ,                                       ! Diffuse Solar Day Schedule Name
  0.451,                                  ! ASHRAE Taub {dimensionless}
  2.127;                                  ! ASHRAE Taud {dimensionless}

OS:ComponentData,
  {638db02e-c9f4-4c95-a98a-de918c0a1f1e}, ! Handle
  Component Data 1,                       ! Name
  {f52c47f9-82c5-4812-be64-67b146032ab4}, ! UUID
  {1f43c37f-0a26-4b34-9158-c4d850a22b22}, ! Version UUID
  1366310723,                             ! Creation Timestamp
  1366310723,                             ! Version Timestamp
  {708885a7-4730-467d-ac9f-f0d09da54d75}; ! Name of Object 1

