
OS:Version,
  {fe219398-09b0-44db-90ce-dceda90af78a}, ! Handle
  0.9.3;                                  ! Version Identifier

OS:SizingPeriod:DesignDay,
  {e97c2759-534f-4d52-9ee0-7083d90cee26}, ! Handle
  Fresno Yosemite Intl Ap Ann Clg .4% Condns DP=>MDB, ! Name
  29.5,                                   ! Maximum Dry-Bulb Temperature {C}
  16.4,                                   ! Daily Dry-Bulb Temperature Range {deltaC}
  18.7,                                   ! Humidity Indicating Conditions at Maximum Dry-Bulb {BasedOnField A3}
  100106,                                 ! Barometric Pressure {Pa}
  3.7,                                    ! Wind Speed {m/s}
  300,                                    ! Wind Direction {deg}
  0,                                      ! Sky Clearness
  0,                                      ! Rain Indicator
  0,                                      ! Snow Indicator
  21,                                     ! Day of Month
  7,                                      ! Month
  SummerDesignDay,                        ! Day Type
  0,                                      ! Daylight Saving Time Indicator
  Dewpoint,                               ! Humidity Indicating Type
  ,                                       ! Humidity Indicating Day Schedule Name
  DefaultMultipliers,                     ! Dry-Bulb Temperature Range Modifier Type
  ,                                       ! Dry-Bulb Temperature Range Modifier Schedule Name
  ASHRAETau,                              ! Solar Model Indicator
  ,                                       ! Beam Solar Day Schedule Name
  ,                                       ! Diffuse Solar Day Schedule Name
  0.428,                                  ! ASHRAE Taub {dimensionless}
  2.152;                                  ! ASHRAE Taud {dimensionless}

OS:ComponentData,
  {9447035f-ea95-4da0-b239-a3a7ee85ab96}, ! Handle
  Component Data 1,                       ! Name
  {c37e6155-9efb-4412-bc7f-4dcee119947f}, ! UUID
  {d0c5f815-4100-4ece-9021-7bdcb66d3b01}, ! Version UUID
  1366306440,                             ! Creation Timestamp
  1366306440,                             ! Version Timestamp
  {e97c2759-534f-4d52-9ee0-7083d90cee26}; ! Name of Object 1

