
OS:Version,
  {dd0a77ad-02ab-434e-abf9-81feed3ec586}, ! Handle
  0.9.3;                                  ! Version Identifier

OS:SizingPeriod:DesignDay,
  {c7b2f49b-5e7c-43c9-a749-90f96826dcd6}, ! Handle
  HUNTSVILLE Ann Clg 2% Condns DB=>MWB,   ! Name
  32.3,                                   ! Maximum Dry-Bulb Temperature {C}
  10.4,                                   ! Daily Dry-Bulb Temperature Range {deltaC}
  23.4,                                   ! Humidity Indicating Conditions at Maximum Dry-Bulb {BasedOnField A3}
  99063,                                  ! Barometric Pressure {Pa}
  3.6,                                    ! Wind Speed {m/s}
  270,                                    ! Wind Direction {deg}
  0,                                      ! Sky Clearness
  0,                                      ! Rain Indicator
  0,                                      ! Snow Indicator
  21,                                     ! Day of Month
  7,                                      ! Month
  SummerDesignDay,                        ! Day Type
  0,                                      ! Daylight Saving Time Indicator
  Wetbulb,                                ! Humidity Indicating Type
  ,                                       ! Humidity Indicating Day Schedule Name
  DefaultMultipliers,                     ! Dry-Bulb Temperature Range Modifier Type
  ,                                       ! Dry-Bulb Temperature Range Modifier Schedule Name
  ASHRAETau,                              ! Solar Model Indicator
  ,                                       ! Beam Solar Day Schedule Name
  ,                                       ! Diffuse Solar Day Schedule Name
  0.552,                                  ! ASHRAE Taub {dimensionless}
  1.785;                                  ! ASHRAE Taud {dimensionless}

OS:ComponentData,
  {7e43aedb-2a32-40de-a88e-a51a9454cd97}, ! Handle
  Component Data 1,                       ! Name
  {542cf4ef-eb04-474f-9bae-224ca5361202}, ! UUID
  {73f60723-f419-4664-95b2-cfcd30b9ca4d}, ! Version UUID
  1366305667,                             ! Creation Timestamp
  1366305667,                             ! Version Timestamp
  {c7b2f49b-5e7c-43c9-a749-90f96826dcd6}; ! Name of Object 1

