
OS:Version,
  {68e6970d-dddf-4fed-8fa6-6654f5d68ca8}, ! Handle
  0.9.3;                                  ! Version Identifier

OS:SizingPeriod:DesignDay,
  {01b9f9e5-0af2-435f-a621-328e6d7274be}, ! Handle
  Bridgeport Sikorsky Memorial Ann Htg 99% Condns DB, ! Name
  -9.2,                                   ! Maximum Dry-Bulb Temperature {C}
  0,                                      ! Daily Dry-Bulb Temperature Range {deltaC}
  -9.2,                                   ! Humidity Indicating Conditions at Maximum Dry-Bulb {BasedOnField A3}
  101289,                                 ! Barometric Pressure {Pa}
  5.2,                                    ! Wind Speed {m/s}
  350,                                    ! Wind Direction {deg}
  0,                                      ! Sky Clearness
  0,                                      ! Rain Indicator
  0,                                      ! Snow Indicator
  21,                                     ! Day of Month
  1,                                      ! Month
  WinterDesignDay,                        ! Day Type
  0,                                      ! Daylight Saving Time Indicator
  Wetbulb,                                ! Humidity Indicating Type
  ,                                       ! Humidity Indicating Day Schedule Name
  DefaultMultipliers,                     ! Dry-Bulb Temperature Range Modifier Type
  ,                                       ! Dry-Bulb Temperature Range Modifier Schedule Name
  ASHRAEClearSky;                         ! Solar Model Indicator

OS:ComponentData,
  {e216c29f-0459-4ea3-82fb-a31742519935}, ! Handle
  Component Data 1,                       ! Name
  {3013ec0a-987c-490e-8495-03eb4df7fe0b}, ! UUID
  {3e13f1c2-264f-4dd5-9664-663896d5db0e}, ! Version UUID
  1366306745,                             ! Creation Timestamp
  1366306745,                             ! Version Timestamp
  {01b9f9e5-0af2-435f-a621-328e6d7274be}; ! Name of Object 1

