
OS:Version,
  {1962caeb-a3ef-4f04-8534-9a7ba02349c9}, ! Handle
  0.9.3;                                  ! Version Identifier

OS:SizingPeriod:DesignDay,
  {73e268ed-32dd-4d49-a8bc-d74f576fadf4}, ! Handle
  LITTLE_ROCK Ann Clg 1% Condns Enth=>MDB, ! Name
  32.3,                                   ! Maximum Dry-Bulb Temperature {C}
  11.1,                                   ! Daily Dry-Bulb Temperature Range {deltaC}
  83700,                                  ! Humidity Indicating Conditions at Maximum Dry-Bulb {BasedOnField A3}
  100356,                                 ! Barometric Pressure {Pa}
  3.5,                                    ! Wind Speed {m/s}
  190,                                    ! Wind Direction {deg}
  0,                                      ! Sky Clearness
  0,                                      ! Rain Indicator
  0,                                      ! Snow Indicator
  21,                                     ! Day of Month
  7,                                      ! Month
  SummerDesignDay,                        ! Day Type
  0,                                      ! Daylight Saving Time Indicator
  Enthalpy,                               ! Humidity Indicating Type
  ,                                       ! Humidity Indicating Day Schedule Name
  DefaultMultipliers,                     ! Dry-Bulb Temperature Range Modifier Type
  ,                                       ! Dry-Bulb Temperature Range Modifier Schedule Name
  ASHRAETau,                              ! Solar Model Indicator
  ,                                       ! Beam Solar Day Schedule Name
  ,                                       ! Diffuse Solar Day Schedule Name
  0.512,                                  ! ASHRAE Taub {dimensionless}
  1.909;                                  ! ASHRAE Taud {dimensionless}

OS:ComponentData,
  {477c5239-164f-4d46-a7cc-f237e639baf0}, ! Handle
  Component Data 1,                       ! Name
  {a2a1e808-fafa-477e-a522-599ca8353519}, ! UUID
  {324fd9cf-90db-494b-85ef-efb8c9d79df7}, ! Version UUID
  1366306232,                             ! Creation Timestamp
  1366306232,                             ! Version Timestamp
  {73e268ed-32dd-4d49-a8bc-d74f576fadf4}; ! Name of Object 1

