
OS:Version,
  {3369de07-9204-4493-8cb6-4a6f6df33bf6}, ! Handle
  0.9.3;                                  ! Version Identifier

OS:SizingPeriod:DesignDay,
  {f18c55aa-d737-43cc-8879-566572402afd}, ! Handle
  Little Falls  Awos Ann Htg Wind 99% Condns WS=>MCDB, ! Name
  -8.8,                                   ! Maximum Dry-Bulb Temperature {C}
  0,                                      ! Daily Dry-Bulb Temperature Range {deltaC}
  -8.8,                                   ! Humidity Indicating Conditions at Maximum Dry-Bulb {BasedOnField A3}
  97283,                                  ! Barometric Pressure {Pa}
  8,                                      ! Wind Speed {m/s}
  290,                                    ! Wind Direction {deg}
  0,                                      ! Sky Clearness
  0,                                      ! Rain Indicator
  0,                                      ! Snow Indicator
  21,                                     ! Day of Month
  1,                                      ! Month
  WinterDesignDay,                        ! Day Type
  0,                                      ! Daylight Saving Time Indicator
  Wetbulb,                                ! Humidity Indicating Type
  ,                                       ! Humidity Indicating Day Schedule Name
  DefaultMultipliers,                     ! Dry-Bulb Temperature Range Modifier Type
  ,                                       ! Dry-Bulb Temperature Range Modifier Schedule Name
  ASHRAEClearSky;                         ! Solar Model Indicator

OS:ComponentData,
  {981877e5-3cca-440c-8c4b-462f8a4d57cb}, ! Handle
  Component Data 1,                       ! Name
  {e46a5a4e-6d2b-4399-bc60-50e90ba3f7bc}, ! UUID
  {5da75e47-9c56-4349-b13a-0c84cef5f673}, ! Version UUID
  1366308286,                             ! Creation Timestamp
  1366308286,                             ! Version Timestamp
  {f18c55aa-d737-43cc-8879-566572402afd}; ! Name of Object 1

