
OS:Version,
  {f73ad07e-5917-4178-98c5-c5cd6b3accd9}, ! Handle
  0.9.3;                                  ! Version Identifier

OS:SizingPeriod:DesignDay,
  {b5d02a4b-d30e-48ce-9464-a69fb8d32f45}, ! Handle
  Lubbock International Ap Ann Clg 1% Condns Enth=>MDB, ! Name
  30.1,                                   ! Maximum Dry-Bulb Temperature {C}
  13.1,                                   ! Daily Dry-Bulb Temperature Range {deltaC}
  69900,                                  ! Humidity Indicating Conditions at Maximum Dry-Bulb {BasedOnField A3}
  89962,                                  ! Barometric Pressure {Pa}
  6.4,                                    ! Wind Speed {m/s}
  170,                                    ! Wind Direction {deg}
  0,                                      ! Sky Clearness
  0,                                      ! Rain Indicator
  0,                                      ! Snow Indicator
  21,                                     ! Day of Month
  7,                                      ! Month
  SummerDesignDay,                        ! Day Type
  0,                                      ! Daylight Saving Time Indicator
  Enthalpy,                               ! Humidity Indicating Type
  ,                                       ! Humidity Indicating Day Schedule Name
  DefaultMultipliers,                     ! Dry-Bulb Temperature Range Modifier Type
  ,                                       ! Dry-Bulb Temperature Range Modifier Schedule Name
  ASHRAETau,                              ! Solar Model Indicator
  ,                                       ! Beam Solar Day Schedule Name
  ,                                       ! Diffuse Solar Day Schedule Name
  0.396,                                  ! ASHRAE Taub {dimensionless}
  2.241;                                  ! ASHRAE Taud {dimensionless}

OS:ComponentData,
  {94cf8403-436b-4d90-b547-30e9c18afcd4}, ! Handle
  Component Data 1,                       ! Name
  {b6756ae2-6c86-4184-92ee-33a931957dc4}, ! UUID
  {f0b78bee-ef57-4537-8964-48aaaeac244b}, ! Version UUID
  1366310800,                             ! Creation Timestamp
  1366310800,                             ! Version Timestamp
  {b5d02a4b-d30e-48ce-9464-a69fb8d32f45}; ! Name of Object 1

