
OS:Version,
  {c5505d21-9b06-4264-9bfd-a8770fa9fcfc}, ! Handle
  0.9.3;                                  ! Version Identifier

OS:SizingPeriod:DesignDay,
  {c7fd27ba-d8cd-450e-a34b-f873aaec4f07}, ! Handle
  Flint Bishop Intl Arpt Ann Clg 2% Condns DB=>MWB, ! Name
  28.8,                                   ! Maximum Dry-Bulb Temperature {C}
  11.7,                                   ! Daily Dry-Bulb Temperature Range {deltaC}
  21.3,                                   ! Humidity Indicating Conditions at Maximum Dry-Bulb {BasedOnField A3}
  98545,                                  ! Barometric Pressure {Pa}
  5.3,                                    ! Wind Speed {m/s}
  250,                                    ! Wind Direction {deg}
  0,                                      ! Sky Clearness
  0,                                      ! Rain Indicator
  0,                                      ! Snow Indicator
  21,                                     ! Day of Month
  7,                                      ! Month
  SummerDesignDay,                        ! Day Type
  0,                                      ! Daylight Saving Time Indicator
  Wetbulb,                                ! Humidity Indicating Type
  ,                                       ! Humidity Indicating Day Schedule Name
  DefaultMultipliers,                     ! Dry-Bulb Temperature Range Modifier Type
  ,                                       ! Dry-Bulb Temperature Range Modifier Schedule Name
  ASHRAETau,                              ! Solar Model Indicator
  ,                                       ! Beam Solar Day Schedule Name
  ,                                       ! Diffuse Solar Day Schedule Name
  0.449,                                  ! ASHRAE Taub {dimensionless}
  2.044;                                  ! ASHRAE Taud {dimensionless}

OS:ComponentData,
  {f7a51037-7a60-40d5-bcf8-d1930c0f4292}, ! Handle
  Component Data 1,                       ! Name
  {29eb1765-c044-4db8-aecc-7b56f185dd19}, ! UUID
  {0490e165-81bd-48fd-862b-3b235e8bb67c}, ! Version UUID
  1366307999,                             ! Creation Timestamp
  1366307999,                             ! Version Timestamp
  {c7fd27ba-d8cd-450e-a34b-f873aaec4f07}; ! Name of Object 1

