
OS:Version,
  {0c963d0c-238d-4491-ac57-f0d8772cbe63}, ! Handle
  0.9.3;                                  ! Version Identifier

OS:SizingPeriod:DesignDay,
  {ed7324ed-019f-4756-a425-d3af2fda7a86}, ! Handle
  ABILENE Ann Hum_n 99% Condns DP=>MCDB,  ! Name
  1.4,                                    ! Maximum Dry-Bulb Temperature {C}
  0,                                      ! Daily Dry-Bulb Temperature Range {deltaC}
  -13,                                    ! Humidity Indicating Conditions at Maximum Dry-Bulb {BasedOnField A3}
  95072,                                  ! Barometric Pressure {Pa}
  5.1,                                    ! Wind Speed {m/s}
  10,                                     ! Wind Direction {deg}
  0,                                      ! Sky Clearness
  0,                                      ! Rain Indicator
  0,                                      ! Snow Indicator
  21,                                     ! Day of Month
  1,                                      ! Month
  WinterDesignDay,                        ! Day Type
  0,                                      ! Daylight Saving Time Indicator
  Dewpoint,                               ! Humidity Indicating Type
  ,                                       ! Humidity Indicating Day Schedule Name
  DefaultMultipliers,                     ! Dry-Bulb Temperature Range Modifier Type
  ,                                       ! Dry-Bulb Temperature Range Modifier Schedule Name
  ASHRAEClearSky;                         ! Solar Model Indicator

