
OS:Version,
  {d265fc10-e127-4533-ba17-95dc93a3f599}, ! Handle
  0.9.3;                                  ! Version Identifier

OS:SizingPeriod:DesignDay,
  {f4785106-2fc0-4e0e-a2ba-835151c20164}, ! Handle
  Alliance Municipal Ann Clg 1% Condns Enth=>MDB, ! Name
  29.1,                                   ! Maximum Dry-Bulb Temperature {C}
  17.3,                                   ! Daily Dry-Bulb Temperature Range {deltaC}
  63900,                                  ! Humidity Indicating Conditions at Maximum Dry-Bulb {BasedOnField A3}
  87737,                                  ! Barometric Pressure {Pa}
  5.5,                                    ! Wind Speed {m/s}
  170,                                    ! Wind Direction {deg}
  0,                                      ! Sky Clearness
  0,                                      ! Rain Indicator
  0,                                      ! Snow Indicator
  21,                                     ! Day of Month
  7,                                      ! Month
  SummerDesignDay,                        ! Day Type
  0,                                      ! Daylight Saving Time Indicator
  Enthalpy,                               ! Humidity Indicating Type
  ,                                       ! Humidity Indicating Day Schedule Name
  DefaultMultipliers,                     ! Dry-Bulb Temperature Range Modifier Type
  ,                                       ! Dry-Bulb Temperature Range Modifier Schedule Name
  ASHRAETau,                              ! Solar Model Indicator
  ,                                       ! Beam Solar Day Schedule Name
  ,                                       ! Diffuse Solar Day Schedule Name
  0.419,                                  ! ASHRAE Taub {dimensionless}
  2.05;                                   ! ASHRAE Taud {dimensionless}

OS:ComponentData,
  {779673eb-6655-4b84-a1b3-e58edec621f7}, ! Handle
  Component Data 1,                       ! Name
  {b4fbaa49-78d8-4f02-be3d-56d61623f7e3}, ! UUID
  {d06989e3-fe82-4a45-841a-95803d780602}, ! Version UUID
  1366309083,                             ! Creation Timestamp
  1366309083,                             ! Version Timestamp
  {f4785106-2fc0-4e0e-a2ba-835151c20164}; ! Name of Object 1

