
OS:Version,
  {032fb2f0-fb6f-4b5b-8307-785bef8392ca}, ! Handle
  0.9.3;                                  ! Version Identifier

OS:SizingPeriod:DesignDay,
  {f486dc54-12dc-49ac-b291-e3c2a0ca3f96}, ! Handle
  CUT_BANK Ann Clg 2% Condns DB=>MWB,     ! Name
  27.5,                                   ! Maximum Dry-Bulb Temperature {C}
  15.1,                                   ! Daily Dry-Bulb Temperature Range {deltaC}
  14.3,                                   ! Humidity Indicating Conditions at Maximum Dry-Bulb {BasedOnField A3}
  88037,                                  ! Barometric Pressure {Pa}
  5.8,                                    ! Wind Speed {m/s}
  260,                                    ! Wind Direction {deg}
  0,                                      ! Sky Clearness
  0,                                      ! Rain Indicator
  0,                                      ! Snow Indicator
  21,                                     ! Day of Month
  7,                                      ! Month
  SummerDesignDay,                        ! Day Type
  0,                                      ! Daylight Saving Time Indicator
  Wetbulb,                                ! Humidity Indicating Type
  ,                                       ! Humidity Indicating Day Schedule Name
  DefaultMultipliers,                     ! Dry-Bulb Temperature Range Modifier Type
  ,                                       ! Dry-Bulb Temperature Range Modifier Schedule Name
  ASHRAETau,                              ! Solar Model Indicator
  ,                                       ! Beam Solar Day Schedule Name
  ,                                       ! Diffuse Solar Day Schedule Name
  0.368,                                  ! ASHRAE Taub {dimensionless}
  2.249;                                  ! ASHRAE Taud {dimensionless}

OS:ComponentData,
  {8a9d6ae2-c744-4882-a546-718d804feb85}, ! Handle
  Component Data 1,                       ! Name
  {e4027ca0-1fb3-4f64-92c2-f387890895cb}, ! UUID
  {3873ec25-31c8-4889-9df0-3e0a86b2a11b}, ! Version UUID
  1366308735,                             ! Creation Timestamp
  1366308735,                             ! Version Timestamp
  {f486dc54-12dc-49ac-b291-e3c2a0ca3f96}; ! Name of Object 1

