
OS:Version,
  {4e0c16c9-572a-4a84-972f-94d7fe140803}, ! Handle
  0.9.3;                                  ! Version Identifier

OS:SizingPeriod:DesignDay,
  {1acd75f6-d2b4-4327-b4c1-0e2ba960b7f9}, ! Handle
  Fayetteville Pope Afb Ann Clg .4% Condns DB=>MWB, ! Name
  36.1,                                   ! Maximum Dry-Bulb Temperature {C}
  10.4,                                   ! Daily Dry-Bulb Temperature Range {deltaC}
  24.6,                                   ! Humidity Indicating Conditions at Maximum Dry-Bulb {BasedOnField A3}
  100535,                                 ! Barometric Pressure {Pa}
  3.4,                                    ! Wind Speed {m/s}
  230,                                    ! Wind Direction {deg}
  0,                                      ! Sky Clearness
  0,                                      ! Rain Indicator
  0,                                      ! Snow Indicator
  21,                                     ! Day of Month
  7,                                      ! Month
  SummerDesignDay,                        ! Day Type
  0,                                      ! Daylight Saving Time Indicator
  Wetbulb,                                ! Humidity Indicating Type
  ,                                       ! Humidity Indicating Day Schedule Name
  DefaultMultipliers,                     ! Dry-Bulb Temperature Range Modifier Type
  ,                                       ! Dry-Bulb Temperature Range Modifier Schedule Name
  ASHRAETau,                              ! Solar Model Indicator
  ,                                       ! Beam Solar Day Schedule Name
  ,                                       ! Diffuse Solar Day Schedule Name
  0.584,                                  ! ASHRAE Taub {dimensionless}
  1.713;                                  ! ASHRAE Taud {dimensionless}

OS:ComponentData,
  {30b1e2ba-7196-4129-9516-57582de774be}, ! Handle
  Component Data 1,                       ! Name
  {e42e7610-b02f-4187-8222-d4a4df2bb9cd}, ! UUID
  {2feb33e0-3dc3-4785-a9ba-6f86dae639d8}, ! Version UUID
  1366308910,                             ! Creation Timestamp
  1366308910,                             ! Version Timestamp
  {1acd75f6-d2b4-4327-b4c1-0e2ba960b7f9}; ! Name of Object 1

