
OS:Version,
  {db72ea6b-ec50-4361-b687-f20d251b472e}, ! Handle
  0.9.3;                                  ! Version Identifier

OS:SizingPeriod:DesignDay,
  {d96db0f5-1994-4c8a-b150-d61acf752e3b}, ! Handle
  Erie Ann Clg .4% Condns DB=>MWB,        ! Name
  30.2,                                   ! Maximum Dry-Bulb Temperature {C}
  8.3,                                    ! Daily Dry-Bulb Temperature Range {deltaC}
  22.7,                                   ! Humidity Indicating Conditions at Maximum Dry-Bulb {BasedOnField A3}
  98651,                                  ! Barometric Pressure {Pa}
  5,                                      ! Wind Speed {m/s}
  260,                                    ! Wind Direction {deg}
  0,                                      ! Sky Clearness
  0,                                      ! Rain Indicator
  0,                                      ! Snow Indicator
  21,                                     ! Day of Month
  7,                                      ! Month
  SummerDesignDay,                        ! Day Type
  0,                                      ! Daylight Saving Time Indicator
  Wetbulb,                                ! Humidity Indicating Type
  ,                                       ! Humidity Indicating Day Schedule Name
  DefaultMultipliers,                     ! Dry-Bulb Temperature Range Modifier Type
  ,                                       ! Dry-Bulb Temperature Range Modifier Schedule Name
  ASHRAETau,                              ! Solar Model Indicator
  ,                                       ! Beam Solar Day Schedule Name
  ,                                       ! Diffuse Solar Day Schedule Name
  0.455,                                  ! ASHRAE Taub {dimensionless}
  2.041;                                  ! ASHRAE Taud {dimensionless}

OS:ComponentData,
  {256e5d94-91c2-4beb-98e8-6320ae058e72}, ! Handle
  Component Data 1,                       ! Name
  {94457ef4-84ff-4b60-970b-ea8eb35d19b2}, ! UUID
  {6876ebe3-f88e-458e-ae4a-16f1b553b4e7}, ! Version UUID
  1366310169,                             ! Creation Timestamp
  1366310169,                             ! Version Timestamp
  {d96db0f5-1994-4c8a-b150-d61acf752e3b}; ! Name of Object 1

