
OS:Version,
  {8c6759f5-eecc-4bd9-8deb-393ce1cf634e}, ! Handle
  0.9.3;                                  ! Version Identifier

OS:SizingPeriod:DesignDay,
  {1cb2f076-7e68-44eb-89df-145403030c37}, ! Handle
  HURON Ann Clg 1% Condns DB=>MWB,        ! Name
  32.7,                                   ! Maximum Dry-Bulb Temperature {C}
  12.7,                                   ! Daily Dry-Bulb Temperature Range {deltaC}
  22.6,                                   ! Humidity Indicating Conditions at Maximum Dry-Bulb {BasedOnField A3}
  96692,                                  ! Barometric Pressure {Pa}
  6,                                      ! Wind Speed {m/s}
  180,                                    ! Wind Direction {deg}
  0,                                      ! Sky Clearness
  0,                                      ! Rain Indicator
  0,                                      ! Snow Indicator
  21,                                     ! Day of Month
  7,                                      ! Month
  SummerDesignDay,                        ! Day Type
  0,                                      ! Daylight Saving Time Indicator
  Wetbulb,                                ! Humidity Indicating Type
  ,                                       ! Humidity Indicating Day Schedule Name
  DefaultMultipliers,                     ! Dry-Bulb Temperature Range Modifier Type
  ,                                       ! Dry-Bulb Temperature Range Modifier Schedule Name
  ASHRAETau,                              ! Solar Model Indicator
  ,                                       ! Beam Solar Day Schedule Name
  ,                                       ! Diffuse Solar Day Schedule Name
  0.398,                                  ! ASHRAE Taub {dimensionless}
  2.269;                                  ! ASHRAE Taud {dimensionless}

OS:ComponentData,
  {5421c537-353f-4580-9842-a04c62f5403e}, ! Handle
  Component Data 1,                       ! Name
  {9442d8c3-378d-41cd-859b-c68bb1b047d6}, ! UUID
  {8840488a-d308-4e27-803a-247513525d3b}, ! Version UUID
  1366310399,                             ! Creation Timestamp
  1366310399,                             ! Version Timestamp
  {1cb2f076-7e68-44eb-89df-145403030c37}; ! Name of Object 1

