
OS:Version,
  {9ac7ae18-9be4-46bf-b98b-72692f506557}, ! Handle
  0.9.3;                                  ! Version Identifier

OS:SizingPeriod:DesignDay,
  {4ef00c26-3d24-4fd3-9e94-9c114ccdb458}, ! Handle
  Aberdeen Regional Arpt Ann Clg 1% Condns DB=>MWB, ! Name
  31.5,                                   ! Maximum Dry-Bulb Temperature {C}
  12.6,                                   ! Daily Dry-Bulb Temperature Range {deltaC}
  21.8,                                   ! Humidity Indicating Conditions at Maximum Dry-Bulb {BasedOnField A3}
  96634,                                  ! Barometric Pressure {Pa}
  6,                                      ! Wind Speed {m/s}
  180,                                    ! Wind Direction {deg}
  0,                                      ! Sky Clearness
  0,                                      ! Rain Indicator
  0,                                      ! Snow Indicator
  21,                                     ! Day of Month
  7,                                      ! Month
  SummerDesignDay,                        ! Day Type
  0,                                      ! Daylight Saving Time Indicator
  Wetbulb,                                ! Humidity Indicating Type
  ,                                       ! Humidity Indicating Day Schedule Name
  DefaultMultipliers,                     ! Dry-Bulb Temperature Range Modifier Type
  ,                                       ! Dry-Bulb Temperature Range Modifier Schedule Name
  ASHRAETau,                              ! Solar Model Indicator
  ,                                       ! Beam Solar Day Schedule Name
  ,                                       ! Diffuse Solar Day Schedule Name
  0.392,                                  ! ASHRAE Taub {dimensionless}
  2.277;                                  ! ASHRAE Taud {dimensionless}

OS:ComponentData,
  {7c345a6f-3766-4f0e-b43a-5485ff33714a}, ! Handle
  Component Data 1,                       ! Name
  {3e7ae051-164b-42ea-98a1-face39d7e143}, ! UUID
  {c7dd296a-7372-449f-b70d-227bb01242b6}, ! Version UUID
  1366310384,                             ! Creation Timestamp
  1366310384,                             ! Version Timestamp
  {4ef00c26-3d24-4fd3-9e94-9c114ccdb458}; ! Name of Object 1

