
OS:Version,
  {072ff978-beb7-4e53-8d64-3147ac9f8717}, ! Handle
  0.9.3;                                  ! Version Identifier

OS:SizingPeriod:DesignDay,
  {07d4fa8f-2c25-4f27-aec9-b2f157fd8e07}, ! Handle
  Charleston Intl Arpt Ann Clg 1% Condns Enth=>MDB, ! Name
  30.9,                                   ! Maximum Dry-Bulb Temperature {C}
  9,                                      ! Daily Dry-Bulb Temperature Range {deltaC}
  82200,                                  ! Humidity Indicating Conditions at Maximum Dry-Bulb {BasedOnField A3}
  101181,                                 ! Barometric Pressure {Pa}
  4.4,                                    ! Wind Speed {m/s}
  230,                                    ! Wind Direction {deg}
  0,                                      ! Sky Clearness
  0,                                      ! Rain Indicator
  0,                                      ! Snow Indicator
  21,                                     ! Day of Month
  7,                                      ! Month
  SummerDesignDay,                        ! Day Type
  0,                                      ! Daylight Saving Time Indicator
  Enthalpy,                               ! Humidity Indicating Type
  ,                                       ! Humidity Indicating Day Schedule Name
  DefaultMultipliers,                     ! Dry-Bulb Temperature Range Modifier Type
  ,                                       ! Dry-Bulb Temperature Range Modifier Schedule Name
  ASHRAETau,                              ! Solar Model Indicator
  ,                                       ! Beam Solar Day Schedule Name
  ,                                       ! Diffuse Solar Day Schedule Name
  0.559,                                  ! ASHRAE Taub {dimensionless}
  1.811;                                  ! ASHRAE Taud {dimensionless}

