
OS:Version,
  {a077b1d1-e373-4ad4-aacf-3bb6369fbfdf}, ! Handle
  0.9.3;                                  ! Version Identifier

OS:SizingPeriod:DesignDay,
  {b60c3c4a-8cf1-4d3b-94c6-685b9c91d5e9}, ! Handle
  Fayetteville Pope Afb Ann Clg 1% Condns WB=>MDB, ! Name
  31.2,                                   ! Maximum Dry-Bulb Temperature {C}
  10.4,                                   ! Daily Dry-Bulb Temperature Range {deltaC}
  25.7,                                   ! Humidity Indicating Conditions at Maximum Dry-Bulb {BasedOnField A3}
  100535,                                 ! Barometric Pressure {Pa}
  3.4,                                    ! Wind Speed {m/s}
  230,                                    ! Wind Direction {deg}
  0,                                      ! Sky Clearness
  0,                                      ! Rain Indicator
  0,                                      ! Snow Indicator
  21,                                     ! Day of Month
  7,                                      ! Month
  SummerDesignDay,                        ! Day Type
  0,                                      ! Daylight Saving Time Indicator
  Wetbulb,                                ! Humidity Indicating Type
  ,                                       ! Humidity Indicating Day Schedule Name
  DefaultMultipliers,                     ! Dry-Bulb Temperature Range Modifier Type
  ,                                       ! Dry-Bulb Temperature Range Modifier Schedule Name
  ASHRAETau,                              ! Solar Model Indicator
  ,                                       ! Beam Solar Day Schedule Name
  ,                                       ! Diffuse Solar Day Schedule Name
  0.584,                                  ! ASHRAE Taub {dimensionless}
  1.713;                                  ! ASHRAE Taud {dimensionless}

OS:ComponentData,
  {531d400b-3099-48d5-bd5f-d3a6ee2d6574}, ! Handle
  Component Data 1,                       ! Name
  {c72c165e-68b8-4193-9053-5558b4886522}, ! UUID
  {64138377-79fa-4a30-bf09-19b3b683259a}, ! Version UUID
  1366308911,                             ! Creation Timestamp
  1366308911,                             ! Version Timestamp
  {b60c3c4a-8cf1-4d3b-94c6-685b9c91d5e9}; ! Name of Object 1

