
OS:Version,
  {f68b1f0d-bb54-4c28-b77b-53472c3793e1}, ! Handle
  0.9.3;                                  ! Version Identifier

OS:SizingPeriod:DesignDay,
  {af8fc17b-f4db-4ce8-bd98-26eefdd47a21}, ! Handle
  Laredo AFB Ann Htg 99% Condns DB,       ! Name
  3.2,                                    ! Maximum Dry-Bulb Temperature {C}
  0,                                      ! Daily Dry-Bulb Temperature Range {deltaC}
  3.2,                                    ! Humidity Indicating Conditions at Maximum Dry-Bulb {BasedOnField A3}
  99512,                                  ! Barometric Pressure {Pa}
  4.2,                                    ! Wind Speed {m/s}
  0,                                      ! Wind Direction {deg}
  0,                                      ! Sky Clearness
  0,                                      ! Rain Indicator
  0,                                      ! Snow Indicator
  21,                                     ! Day of Month
  1,                                      ! Month
  WinterDesignDay,                        ! Day Type
  0,                                      ! Daylight Saving Time Indicator
  Wetbulb,                                ! Humidity Indicating Type
  ,                                       ! Humidity Indicating Day Schedule Name
  DefaultMultipliers,                     ! Dry-Bulb Temperature Range Modifier Type
  ,                                       ! Dry-Bulb Temperature Range Modifier Schedule Name
  ASHRAEClearSky;                         ! Solar Model Indicator

OS:ComponentData,
  {d69f873d-d7ce-4d69-a2b8-a893c6944e6f}, ! Handle
  Component Data 1,                       ! Name
  {897ee578-6692-4f43-83bf-d649ad115cad}, ! UUID
  {153a97e5-8b63-4822-823d-2f3a6475da16}, ! Version UUID
  1366310778,                             ! Creation Timestamp
  1366310778,                             ! Version Timestamp
  {af8fc17b-f4db-4ce8-bd98-26eefdd47a21}; ! Name of Object 1

