
OS:Version,
  {e44add32-4268-4ff8-a9cc-08e5ae53233d}, ! Handle
  0.9.3;                                  ! Version Identifier

OS:SizingPeriod:DesignDay,
  {b8500d91-f3aa-4abd-8c2b-3f9489f73646}, ! Handle
  Harrisburg Capital City Arpt Ann Clg 2% Condns WB=>MDB, ! Name
  28.1,                                   ! Maximum Dry-Bulb Temperature {C}
  10.8,                                   ! Daily Dry-Bulb Temperature Range {deltaC}
  23.3,                                   ! Humidity Indicating Conditions at Maximum Dry-Bulb {BasedOnField A3}
  100082,                                 ! Barometric Pressure {Pa}
  3.8,                                    ! Wind Speed {m/s}
  300,                                    ! Wind Direction {deg}
  0,                                      ! Sky Clearness
  0,                                      ! Rain Indicator
  0,                                      ! Snow Indicator
  21,                                     ! Day of Month
  7,                                      ! Month
  SummerDesignDay,                        ! Day Type
  0,                                      ! Daylight Saving Time Indicator
  Wetbulb,                                ! Humidity Indicating Type
  ,                                       ! Humidity Indicating Day Schedule Name
  DefaultMultipliers,                     ! Dry-Bulb Temperature Range Modifier Type
  ,                                       ! Dry-Bulb Temperature Range Modifier Schedule Name
  ASHRAETau,                              ! Solar Model Indicator
  ,                                       ! Beam Solar Day Schedule Name
  ,                                       ! Diffuse Solar Day Schedule Name
  0.519,                                  ! ASHRAE Taub {dimensionless}
  1.838;                                  ! ASHRAE Taud {dimensionless}

OS:ComponentData,
  {2b76a341-06d7-4cd7-b7f1-3b4b9005369d}, ! Handle
  Component Data 1,                       ! Name
  {d7362764-8955-4ffc-9c50-22f275b7238c}, ! UUID
  {e515e02e-ee59-4c39-8019-e3473c1951ca}, ! Version UUID
  1366310189,                             ! Creation Timestamp
  1366310189,                             ! Version Timestamp
  {b8500d91-f3aa-4abd-8c2b-3f9489f73646}; ! Name of Object 1

