
OS:Version,
  {4b129dde-6808-4fdf-b6a3-bca3fcf75736}, ! Handle
  0.9.3;                                  ! Version Identifier

OS:SizingPeriod:DesignDay,
  {7d7ba917-fefb-4c8a-913b-a2562453aa08}, ! Handle
  Binghamton Edwin A Link Field Ann Clg .4% Condns WB=>MDB, ! Name
  27.2,                                   ! Maximum Dry-Bulb Temperature {C}
  9.7,                                    ! Daily Dry-Bulb Temperature Range {deltaC}
  22.6,                                   ! Humidity Indicating Conditions at Maximum Dry-Bulb {BasedOnField A3}
  95598,                                  ! Barometric Pressure {Pa}
  4.6,                                    ! Wind Speed {m/s}
  240,                                    ! Wind Direction {deg}
  0,                                      ! Sky Clearness
  0,                                      ! Rain Indicator
  0,                                      ! Snow Indicator
  21,                                     ! Day of Month
  7,                                      ! Month
  SummerDesignDay,                        ! Day Type
  0,                                      ! Daylight Saving Time Indicator
  Wetbulb,                                ! Humidity Indicating Type
  ,                                       ! Humidity Indicating Day Schedule Name
  DefaultMultipliers,                     ! Dry-Bulb Temperature Range Modifier Type
  ,                                       ! Dry-Bulb Temperature Range Modifier Schedule Name
  ASHRAETau,                              ! Solar Model Indicator
  ,                                       ! Beam Solar Day Schedule Name
  ,                                       ! Diffuse Solar Day Schedule Name
  0.452,                                  ! ASHRAE Taub {dimensionless}
  2.004;                                  ! ASHRAE Taud {dimensionless}

OS:ComponentData,
  {6b2c3025-06fa-4988-9564-a94a2d90e738}, ! Handle
  Component Data 1,                       ! Name
  {0b721fed-9a52-4e5c-96ba-fb981484cecf}, ! UUID
  {d017f03b-279e-4291-80ab-bb7fad91c1a5}, ! Version UUID
  1366309594,                             ! Creation Timestamp
  1366309594,                             ! Version Timestamp
  {7d7ba917-fefb-4c8a-913b-a2562453aa08}; ! Name of Object 1

