
OS:Version,
  {bdcc457a-57ec-444d-8495-aa335c97c76a}, ! Handle
  0.9.3;                                  ! Version Identifier

OS:SizingPeriod:DesignDay,
  {00a2617e-b771-48d6-8a73-77084482b439}, ! Handle
  Juneau Ann Htg Wind 99% Condns WS=>MCDB, ! Name
  3.8,                                    ! Maximum Dry-Bulb Temperature {C}
  0,                                      ! Daily Dry-Bulb Temperature Range {deltaC}
  3.8,                                    ! Humidity Indicating Conditions at Maximum Dry-Bulb {BasedOnField A3}
  101289,                                 ! Barometric Pressure {Pa}
  12.4,                                   ! Wind Speed {m/s}
  0,                                      ! Wind Direction {deg}
  0,                                      ! Sky Clearness
  0,                                      ! Rain Indicator
  0,                                      ! Snow Indicator
  21,                                     ! Day of Month
  1,                                      ! Month
  WinterDesignDay,                        ! Day Type
  0,                                      ! Daylight Saving Time Indicator
  Wetbulb,                                ! Humidity Indicating Type
  ,                                       ! Humidity Indicating Day Schedule Name
  DefaultMultipliers,                     ! Dry-Bulb Temperature Range Modifier Type
  ,                                       ! Dry-Bulb Temperature Range Modifier Schedule Name
  ASHRAEClearSky;                         ! Solar Model Indicator

OS:ComponentData,
  {f07fb465-8caf-49cc-9c79-d56be25ec600}, ! Handle
  Component Data 1,                       ! Name
  {779340cc-4154-4720-8b48-c226feb9a1d9}, ! UUID
  {2e4a2ed9-ee21-47c4-bb2b-80841687e473}, ! Version UUID
  1366305331,                             ! Creation Timestamp
  1366305331,                             ! Version Timestamp
  {00a2617e-b771-48d6-8a73-77084482b439}; ! Name of Object 1

