
OS:Version,
  {dd9f693f-4e66-41a5-b388-a4b582a9d20c}, ! Handle
  0.9.3;                                  ! Version Identifier

OS:SizingPeriod:DesignDay,
  {d9dffcc6-4f52-4516-8b5e-e795bd658366}, ! Handle
  LAS_VEGAS Ann Clg 1% Condns WB=>MDB,    ! Name
  34.8,                                   ! Maximum Dry-Bulb Temperature {C}
  13,                                     ! Daily Dry-Bulb Temperature Range {deltaC}
  21.8,                                   ! Humidity Indicating Conditions at Maximum Dry-Bulb {BasedOnField A3}
  93598,                                  ! Barometric Pressure {Pa}
  4.9,                                    ! Wind Speed {m/s}
  230,                                    ! Wind Direction {deg}
  0,                                      ! Sky Clearness
  0,                                      ! Rain Indicator
  0,                                      ! Snow Indicator
  21,                                     ! Day of Month
  7,                                      ! Month
  SummerDesignDay,                        ! Day Type
  0,                                      ! Daylight Saving Time Indicator
  Wetbulb,                                ! Humidity Indicating Type
  ,                                       ! Humidity Indicating Day Schedule Name
  DefaultMultipliers,                     ! Dry-Bulb Temperature Range Modifier Type
  ,                                       ! Dry-Bulb Temperature Range Modifier Schedule Name
  ASHRAETau,                              ! Solar Model Indicator
  ,                                       ! Beam Solar Day Schedule Name
  ,                                       ! Diffuse Solar Day Schedule Name
  0.55,                                   ! ASHRAE Taub {dimensionless}
  1.674;                                  ! ASHRAE Taud {dimensionless}

OS:ComponentData,
  {3b183e13-6d75-4896-a7cc-63e651cdffca}, ! Handle
  Component Data 1,                       ! Name
  {4764a772-2a57-46e5-8e36-d3d7e1372ddf}, ! UUID
  {6b543535-582f-49bd-8fdf-5044eefdcf8f}, ! Version UUID
  1366309507,                             ! Creation Timestamp
  1366309507,                             ! Version Timestamp
  {d9dffcc6-4f52-4516-8b5e-e795bd658366}; ! Name of Object 1

