
OS:Version,
  {ac606b0d-a1dd-4751-b758-2b810b72402c}, ! Handle
  0.9.3;                                  ! Version Identifier

OS:SizingPeriod:DesignDay,
  {9ba047ee-9871-4270-8197-d7e61369d2f0}, ! Handle
  Galveston Scholes Ann Clg .4% Condns WB=>MDB, ! Name
  30.4,                                   ! Maximum Dry-Bulb Temperature {C}
  5.7,                                    ! Daily Dry-Bulb Temperature Range {deltaC}
  27.5,                                   ! Humidity Indicating Conditions at Maximum Dry-Bulb {BasedOnField A3}
  101133,                                 ! Barometric Pressure {Pa}
  5.2,                                    ! Wind Speed {m/s}
  180,                                    ! Wind Direction {deg}
  0,                                      ! Sky Clearness
  0,                                      ! Rain Indicator
  0,                                      ! Snow Indicator
  21,                                     ! Day of Month
  8,                                      ! Month
  SummerDesignDay,                        ! Day Type
  0,                                      ! Daylight Saving Time Indicator
  Wetbulb,                                ! Humidity Indicating Type
  ,                                       ! Humidity Indicating Day Schedule Name
  DefaultMultipliers,                     ! Dry-Bulb Temperature Range Modifier Type
  ,                                       ! Dry-Bulb Temperature Range Modifier Schedule Name
  ASHRAETau,                              ! Solar Model Indicator
  ,                                       ! Beam Solar Day Schedule Name
  ,                                       ! Diffuse Solar Day Schedule Name
  0.503,                                  ! ASHRAE Taub {dimensionless}
  1.974;                                  ! ASHRAE Taud {dimensionless}

OS:ComponentData,
  {3ff5e6dc-7edd-4986-9a13-4a1d473eb20e}, ! Handle
  Component Data 1,                       ! Name
  {25c1a728-932f-4575-b71a-6a1b94794861}, ! UUID
  {9377b882-3aa8-4e19-9569-8bdcfb69e677}, ! Version UUID
  1366310718,                             ! Creation Timestamp
  1366310718,                             ! Version Timestamp
  {9ba047ee-9871-4270-8197-d7e61369d2f0}; ! Name of Object 1

