
OS:Version,
  {3843722a-b734-4686-8058-fa5e4b111fd3}, ! Handle
  0.9.3;                                  ! Version Identifier

OS:SizingPeriod:DesignDay,
  {381b2cf2-e466-4690-87c1-4f3fd92994ea}, ! Handle
  Dover Afb Ann Clg 2% Condns DP=>MDB,    ! Name
  26.7,                                   ! Maximum Dry-Bulb Temperature {C}
  9.1,                                    ! Daily Dry-Bulb Temperature Range {deltaC}
  23.1,                                   ! Humidity Indicating Conditions at Maximum Dry-Bulb {BasedOnField A3}
  101241,                                 ! Barometric Pressure {Pa}
  4.2,                                    ! Wind Speed {m/s}
  240,                                    ! Wind Direction {deg}
  0,                                      ! Sky Clearness
  0,                                      ! Rain Indicator
  0,                                      ! Snow Indicator
  21,                                     ! Day of Month
  7,                                      ! Month
  SummerDesignDay,                        ! Day Type
  0,                                      ! Daylight Saving Time Indicator
  Dewpoint,                               ! Humidity Indicating Type
  ,                                       ! Humidity Indicating Day Schedule Name
  DefaultMultipliers,                     ! Dry-Bulb Temperature Range Modifier Type
  ,                                       ! Dry-Bulb Temperature Range Modifier Schedule Name
  ASHRAETau,                              ! Solar Model Indicator
  ,                                       ! Beam Solar Day Schedule Name
  ,                                       ! Diffuse Solar Day Schedule Name
  0.575,                                  ! ASHRAE Taub {dimensionless}
  1.719;                                  ! ASHRAE Taud {dimensionless}

OS:ComponentData,
  {930f2b3c-6c3a-463f-892b-83ccd1686423}, ! Handle
  Component Data 1,                       ! Name
  {0eebbe37-fd58-4dce-9a4c-707a92f2315b}, ! UUID
  {dfcf82bf-434e-481a-b472-72d278227c4e}, ! Version UUID
  1366306770,                             ! Creation Timestamp
  1366306770,                             ! Version Timestamp
  {381b2cf2-e466-4690-87c1-4f3fd92994ea}; ! Name of Object 1

