
OS:Version,
  {bf4ebab5-6eaa-499b-9f80-767cc30b90d8}, ! Handle
  0.9.3;                                  ! Version Identifier

OS:SizingPeriod:DesignDay,
  {b3bc8f22-3833-40e5-a6ef-9c4c929cc476}, ! Handle
  Kaiser Mem  Awos Ann Clg .4% Condns Enth=>MDB, ! Name
  32.8,                                   ! Maximum Dry-Bulb Temperature {C}
  11.7,                                   ! Daily Dry-Bulb Temperature Range {deltaC}
  80600,                                  ! Humidity Indicating Conditions at Maximum Dry-Bulb {BasedOnField A3}
  98182,                                  ! Barometric Pressure {Pa}
  3.7,                                    ! Wind Speed {m/s}
  250,                                    ! Wind Direction {deg}
  0,                                      ! Sky Clearness
  0,                                      ! Rain Indicator
  0,                                      ! Snow Indicator
  21,                                     ! Day of Month
  7,                                      ! Month
  SummerDesignDay,                        ! Day Type
  0,                                      ! Daylight Saving Time Indicator
  Enthalpy,                               ! Humidity Indicating Type
  ,                                       ! Humidity Indicating Day Schedule Name
  DefaultMultipliers,                     ! Dry-Bulb Temperature Range Modifier Type
  ,                                       ! Dry-Bulb Temperature Range Modifier Schedule Name
  ASHRAETau,                              ! Solar Model Indicator
  ,                                       ! Beam Solar Day Schedule Name
  ,                                       ! Diffuse Solar Day Schedule Name
  0.456,                                  ! ASHRAE Taub {dimensionless}
  2.075;                                  ! ASHRAE Taud {dimensionless}

OS:ComponentData,
  {5ad27cdd-d3ce-4efd-9eb3-d4cc24d3dc05}, ! Handle
  Component Data 1,                       ! Name
  {d7873061-3043-49f2-8b31-db1c3dcdfe9f}, ! UUID
  {6b85c82e-af19-4062-9e1c-6e677719001b}, ! Version UUID
  1366308516,                             ! Creation Timestamp
  1366308516,                             ! Version Timestamp
  {b3bc8f22-3833-40e5-a6ef-9c4c929cc476}; ! Name of Object 1

