
OS:Version,
  {3a9035f4-822d-4826-a476-acec030fae2c}, ! Handle
  0.9.3;                                  ! Version Identifier

OS:SizingPeriod:DesignDay,
  {8113f270-4f6b-436b-ba31-7aca6ea0d235}, ! Handle
  Lake Hood Seaplane Ann Htg 99% Condns DB, ! Name
  -20.1,                                  ! Maximum Dry-Bulb Temperature {C}
  0,                                      ! Daily Dry-Bulb Temperature Range {deltaC}
  -20.1,                                  ! Humidity Indicating Conditions at Maximum Dry-Bulb {BasedOnField A3}
  101061,                                 ! Barometric Pressure {Pa}
  1.1,                                    ! Wind Speed {m/s}
  350,                                    ! Wind Direction {deg}
  0,                                      ! Sky Clearness
  0,                                      ! Rain Indicator
  0,                                      ! Snow Indicator
  21,                                     ! Day of Month
  1,                                      ! Month
  WinterDesignDay,                        ! Day Type
  0,                                      ! Daylight Saving Time Indicator
  Wetbulb,                                ! Humidity Indicating Type
  ,                                       ! Humidity Indicating Day Schedule Name
  DefaultMultipliers,                     ! Dry-Bulb Temperature Range Modifier Type
  ,                                       ! Dry-Bulb Temperature Range Modifier Schedule Name
  ASHRAEClearSky;                         ! Solar Model Indicator

OS:ComponentData,
  {b6c9a72c-ce8f-4d6f-adc4-565e4e57ba04}, ! Handle
  Component Data 1,                       ! Name
  {f2c63e2d-bc6b-4500-83e1-20c8258fe6f5}, ! UUID
  {2d183fee-0ac1-4ec4-9154-82258aca9292}, ! Version UUID
  1366304695,                             ! Creation Timestamp
  1366304695,                             ! Version Timestamp
  {8113f270-4f6b-436b-ba31-7aca6ea0d235}; ! Name of Object 1

