
OS:Version,
  {b29f6008-aecf-4ca4-aacc-e4b929d7af86}, ! Handle
  0.9.3;                                  ! Version Identifier

OS:SizingPeriod:DesignDay,
  {cb713370-5e59-4070-a5f4-7c9bf9727e81}, ! Handle
  Lamar Municipal Ann Clg .4% Condns WB=>MDB, ! Name
  31.3,                                   ! Maximum Dry-Bulb Temperature {C}
  16.8,                                   ! Daily Dry-Bulb Temperature Range {deltaC}
  21.7,                                   ! Humidity Indicating Conditions at Maximum Dry-Bulb {BasedOnField A3}
  88477,                                  ! Barometric Pressure {Pa}
  5.8,                                    ! Wind Speed {m/s}
  180,                                    ! Wind Direction {deg}
  0,                                      ! Sky Clearness
  0,                                      ! Rain Indicator
  0,                                      ! Snow Indicator
  21,                                     ! Day of Month
  7,                                      ! Month
  SummerDesignDay,                        ! Day Type
  0,                                      ! Daylight Saving Time Indicator
  Wetbulb,                                ! Humidity Indicating Type
  ,                                       ! Humidity Indicating Day Schedule Name
  DefaultMultipliers,                     ! Dry-Bulb Temperature Range Modifier Type
  ,                                       ! Dry-Bulb Temperature Range Modifier Schedule Name
  ASHRAETau,                              ! Solar Model Indicator
  ,                                       ! Beam Solar Day Schedule Name
  ,                                       ! Diffuse Solar Day Schedule Name
  0.438,                                  ! ASHRAE Taub {dimensionless}
  1.984;                                  ! ASHRAE Taud {dimensionless}

OS:ComponentData,
  {2d3ae603-baee-4a5d-b15a-0bc2a7560fae}, ! Handle
  Component Data 1,                       ! Name
  {0f324963-4963-4918-8e30-f5c121869143}, ! UUID
  {deea7004-ba69-4061-87da-937bd7046423}, ! Version UUID
  1366306716,                             ! Creation Timestamp
  1366306716,                             ! Version Timestamp
  {cb713370-5e59-4070-a5f4-7c9bf9727e81}; ! Name of Object 1

