
OS:Version,
  {4e016d8b-52f0-4e43-9a6f-82730a600026}, ! Handle
  0.9.3;                                  ! Version Identifier

OS:SizingPeriod:DesignDay,
  {ad684652-de8d-49d1-95b3-04c20cd33da5}, ! Handle
  Grand Rapids Awos Ann Clg .4% Condns WB=>MDB, ! Name
  27.5,                                   ! Maximum Dry-Bulb Temperature {C}
  11.1,                                   ! Daily Dry-Bulb Temperature Range {deltaC}
  22,                                     ! Humidity Indicating Conditions at Maximum Dry-Bulb {BasedOnField A3}
  96461,                                  ! Barometric Pressure {Pa}
  4.7,                                    ! Wind Speed {m/s}
  170,                                    ! Wind Direction {deg}
  0,                                      ! Sky Clearness
  0,                                      ! Rain Indicator
  0,                                      ! Snow Indicator
  21,                                     ! Day of Month
  7,                                      ! Month
  SummerDesignDay,                        ! Day Type
  0,                                      ! Daylight Saving Time Indicator
  Wetbulb,                                ! Humidity Indicating Type
  ,                                       ! Humidity Indicating Day Schedule Name
  DefaultMultipliers,                     ! Dry-Bulb Temperature Range Modifier Type
  ,                                       ! Dry-Bulb Temperature Range Modifier Schedule Name
  ASHRAETau,                              ! Solar Model Indicator
  ,                                       ! Beam Solar Day Schedule Name
  ,                                       ! Diffuse Solar Day Schedule Name
  0.396,                                  ! ASHRAE Taub {dimensionless}
  2.227;                                  ! ASHRAE Taud {dimensionless}

OS:ComponentData,
  {a6e0cd07-bc89-476f-b478-ed6d87254fa5}, ! Handle
  Component Data 1,                       ! Name
  {aeea5a73-9b61-4b14-8a06-290a9e2e02bd}, ! UUID
  {535077e6-b8d3-4758-9a0c-6cfe4d9c0d4d}, ! Version UUID
  1366308246,                             ! Creation Timestamp
  1366308246,                             ! Version Timestamp
  {ad684652-de8d-49d1-95b3-04c20cd33da5}; ! Name of Object 1

