
OS:Version,
  {0af85858-410e-4b68-a322-5b659a1b00a7}, ! Handle
  0.9.3;                                  ! Version Identifier

OS:SizingPeriod:DesignDay,
  {b74ccb69-4c7a-4e7a-80e5-08e644398c90}, ! Handle
  Cedar Rapids Municipal Ap Ann Hum_n 99.6% Condns DP=>MCDB, ! Name
  -22.8,                                  ! Maximum Dry-Bulb Temperature {C}
  0,                                      ! Daily Dry-Bulb Temperature Range {deltaC}
  -27.8,                                  ! Humidity Indicating Conditions at Maximum Dry-Bulb {BasedOnField A3}
  98287,                                  ! Barometric Pressure {Pa}
  4.7,                                    ! Wind Speed {m/s}
  300,                                    ! Wind Direction {deg}
  0,                                      ! Sky Clearness
  0,                                      ! Rain Indicator
  0,                                      ! Snow Indicator
  21,                                     ! Day of Month
  1,                                      ! Month
  WinterDesignDay,                        ! Day Type
  0,                                      ! Daylight Saving Time Indicator
  Dewpoint,                               ! Humidity Indicating Type
  ,                                       ! Humidity Indicating Day Schedule Name
  DefaultMultipliers,                     ! Dry-Bulb Temperature Range Modifier Type
  ,                                       ! Dry-Bulb Temperature Range Modifier Schedule Name
  ASHRAEClearSky;                         ! Solar Model Indicator

OS:ComponentData,
  {9484ffda-32b0-4412-a2a8-134e60e8fced}, ! Handle
  Component Data 1,                       ! Name
  {fd8bd1ca-ad8a-471c-85a4-caadf2264b22}, ! UUID
  {0c399c7e-0bca-4ad6-aa4c-bce6ae7e4fa4}, ! Version UUID
  1366307148,                             ! Creation Timestamp
  1366307148,                             ! Version Timestamp
  {b74ccb69-4c7a-4e7a-80e5-08e644398c90}; ! Name of Object 1

