
OS:Version,
  {22bea1b7-6db2-4594-aa79-8f79c999bb00}, ! Handle
  0.9.3;                                  ! Version Identifier

OS:SizingPeriod:DesignDay,
  {a12166cc-987d-461e-b218-366041ff9a3e}, ! Handle
  LEXINGTON Ann Clg 2% Condns DP=>MDB,    ! Name
  26.6,                                   ! Maximum Dry-Bulb Temperature {C}
  10.2,                                   ! Daily Dry-Bulb Temperature Range {deltaC}
  22.3,                                   ! Humidity Indicating Conditions at Maximum Dry-Bulb {BasedOnField A3}
  97761,                                  ! Barometric Pressure {Pa}
  3.7,                                    ! Wind Speed {m/s}
  250,                                    ! Wind Direction {deg}
  0,                                      ! Sky Clearness
  0,                                      ! Rain Indicator
  0,                                      ! Snow Indicator
  21,                                     ! Day of Month
  7,                                      ! Month
  SummerDesignDay,                        ! Day Type
  0,                                      ! Daylight Saving Time Indicator
  Dewpoint,                               ! Humidity Indicating Type
  ,                                       ! Humidity Indicating Day Schedule Name
  DefaultMultipliers,                     ! Dry-Bulb Temperature Range Modifier Type
  ,                                       ! Dry-Bulb Temperature Range Modifier Schedule Name
  ASHRAETau,                              ! Solar Model Indicator
  ,                                       ! Beam Solar Day Schedule Name
  ,                                       ! Diffuse Solar Day Schedule Name
  0.503,                                  ! ASHRAE Taub {dimensionless}
  1.885;                                  ! ASHRAE Taud {dimensionless}

OS:ComponentData,
  {1a8e0d84-f532-4f3a-9ec2-66c1aa2e4895}, ! Handle
  Component Data 1,                       ! Name
  {40931917-b1be-4a54-82ab-0e03eee0d8cd}, ! UUID
  {e6eebfa2-11c0-4f8f-af91-88807f6c7d7b}, ! Version UUID
  1366307657,                             ! Creation Timestamp
  1366307657,                             ! Version Timestamp
  {a12166cc-987d-461e-b218-366041ff9a3e}; ! Name of Object 1

