
OS:Version,
  {9d1128da-5d6c-4bc3-b5ac-d34eb1ca4ecb}, ! Handle
  0.9.3;                                  ! Version Identifier

OS:SizingPeriod:DesignDay,
  {e6ce3abe-ff07-4cbd-9924-a0307840fa2c}, ! Handle
  Davis Monthan Afb Ann Clg .4% Condns DP=>MDB, ! Name
  24.8,                                   ! Maximum Dry-Bulb Temperature {C}
  13.3,                                   ! Daily Dry-Bulb Temperature Range {deltaC}
  21.2,                                   ! Humidity Indicating Conditions at Maximum Dry-Bulb {BasedOnField A3}
  91976,                                  ! Barometric Pressure {Pa}
  4.8,                                    ! Wind Speed {m/s}
  310,                                    ! Wind Direction {deg}
  0,                                      ! Sky Clearness
  0,                                      ! Rain Indicator
  0,                                      ! Snow Indicator
  21,                                     ! Day of Month
  7,                                      ! Month
  SummerDesignDay,                        ! Day Type
  0,                                      ! Daylight Saving Time Indicator
  Dewpoint,                               ! Humidity Indicating Type
  ,                                       ! Humidity Indicating Day Schedule Name
  DefaultMultipliers,                     ! Dry-Bulb Temperature Range Modifier Type
  ,                                       ! Dry-Bulb Temperature Range Modifier Schedule Name
  ASHRAETau,                              ! Solar Model Indicator
  ,                                       ! Beam Solar Day Schedule Name
  ,                                       ! Diffuse Solar Day Schedule Name
  0.555,                                  ! ASHRAE Taub {dimensionless}
  1.729;                                  ! ASHRAE Taud {dimensionless}

