
OS:Version,
  {bcab67ba-2428-4d85-a948-7ff909ebe190}, ! Handle
  0.9.3;                                  ! Version Identifier

OS:SizingPeriod:DesignDay,
  {93c03830-4771-41b4-a7f3-ff52a9291dda}, ! Handle
  Davis Monthan Afb Ann Clg .4% Condns DP=>MDB, ! Name
  24.8,                                   ! Maximum Dry-Bulb Temperature {C}
  13.3,                                   ! Daily Dry-Bulb Temperature Range {deltaC}
  21.2,                                   ! Humidity Indicating Conditions at Maximum Dry-Bulb {BasedOnField A3}
  91976,                                  ! Barometric Pressure {Pa}
  4.8,                                    ! Wind Speed {m/s}
  310,                                    ! Wind Direction {deg}
  0,                                      ! Sky Clearness
  0,                                      ! Rain Indicator
  0,                                      ! Snow Indicator
  21,                                     ! Day of Month
  7,                                      ! Month
  SummerDesignDay,                        ! Day Type
  0,                                      ! Daylight Saving Time Indicator
  Dewpoint,                               ! Humidity Indicating Type
  ,                                       ! Humidity Indicating Day Schedule Name
  DefaultMultipliers,                     ! Dry-Bulb Temperature Range Modifier Type
  ,                                       ! Dry-Bulb Temperature Range Modifier Schedule Name
  ASHRAETau,                              ! Solar Model Indicator
  ,                                       ! Beam Solar Day Schedule Name
  ,                                       ! Diffuse Solar Day Schedule Name
  0.555,                                  ! ASHRAE Taub {dimensionless}
  1.729;                                  ! ASHRAE Taud {dimensionless}

OS:ComponentData,
  {c84696d1-a5bd-4f04-a507-a0ad1235d82a}, ! Handle
  Component Data 1,                       ! Name
  {2be3cd66-e903-48eb-80b5-6846fab0a7a1}, ! UUID
  {c579ccb8-80b4-48b4-8439-5ab319457bce}, ! Version UUID
  1366306264,                             ! Creation Timestamp
  1366306264,                             ! Version Timestamp
  {93c03830-4771-41b4-a7f3-ff52a9291dda}; ! Name of Object 1

