
OS:Version,
  {4323a7d2-bb0c-41c5-9362-687887d2e25d}, ! Handle
  0.9.3;                                  ! Version Identifier

OS:SizingPeriod:DesignDay,
  {a4719358-1ac0-43e5-ad9d-39075d9d0086}, ! Handle
  Austin Mueller Municipal Ap Ann Htg Wind 99% Condns WS=>MCDB, ! Name
  9,                                      ! Maximum Dry-Bulb Temperature {C}
  0,                                      ! Daily Dry-Bulb Temperature Range {deltaC}
  9,                                      ! Humidity Indicating Conditions at Maximum Dry-Bulb {BasedOnField A3}
  98792,                                  ! Barometric Pressure {Pa}
  10.6,                                   ! Wind Speed {m/s}
  10,                                     ! Wind Direction {deg}
  0,                                      ! Sky Clearness
  0,                                      ! Rain Indicator
  0,                                      ! Snow Indicator
  21,                                     ! Day of Month
  1,                                      ! Month
  WinterDesignDay,                        ! Day Type
  0,                                      ! Daylight Saving Time Indicator
  Wetbulb,                                ! Humidity Indicating Type
  ,                                       ! Humidity Indicating Day Schedule Name
  DefaultMultipliers,                     ! Dry-Bulb Temperature Range Modifier Type
  ,                                       ! Dry-Bulb Temperature Range Modifier Schedule Name
  ASHRAEClearSky;                         ! Solar Model Indicator

OS:ComponentData,
  {bc12f384-b132-4ebf-a4de-a92dda053601}, ! Handle
  Component Data 1,                       ! Name
  {146851f3-e3b5-4135-9642-dbfe75bb2da9}, ! UUID
  {27365ada-4032-4cc2-94c8-dcb090f9ddc9}, ! Version UUID
  1366310585,                             ! Creation Timestamp
  1366310585,                             ! Version Timestamp
  {a4719358-1ac0-43e5-ad9d-39075d9d0086}; ! Name of Object 1

