
OS:Version,
  {db1eab42-3b70-485b-b634-2aeefea1967b}, ! Handle
  0.9.3;                                  ! Version Identifier

OS:SizingPeriod:DesignDay,
  {9ce29655-20af-420d-a8fb-58dc547c4d6f}, ! Handle
  LEWISTOWN Ann Clg .4% Condns Enth=>MDB, ! Name
  28.5,                                   ! Maximum Dry-Bulb Temperature {C}
  15.7,                                   ! Daily Dry-Bulb Temperature Range {deltaC}
  55100,                                  ! Humidity Indicating Conditions at Maximum Dry-Bulb {BasedOnField A3}
  87034,                                  ! Barometric Pressure {Pa}
  4.3,                                    ! Wind Speed {m/s}
  0,                                      ! Wind Direction {deg}
  0,                                      ! Sky Clearness
  0,                                      ! Rain Indicator
  0,                                      ! Snow Indicator
  21,                                     ! Day of Month
  7,                                      ! Month
  SummerDesignDay,                        ! Day Type
  0,                                      ! Daylight Saving Time Indicator
  Enthalpy,                               ! Humidity Indicating Type
  ,                                       ! Humidity Indicating Day Schedule Name
  DefaultMultipliers,                     ! Dry-Bulb Temperature Range Modifier Type
  ,                                       ! Dry-Bulb Temperature Range Modifier Schedule Name
  ASHRAETau,                              ! Solar Model Indicator
  ,                                       ! Beam Solar Day Schedule Name
  ,                                       ! Diffuse Solar Day Schedule Name
  0.382,                                  ! ASHRAE Taub {dimensionless}
  2.178;                                  ! ASHRAE Taud {dimensionless}

OS:ComponentData,
  {d1b5790a-deb3-45eb-8054-36ee57b0206c}, ! Handle
  Component Data 1,                       ! Name
  {4a1ca26a-0503-442e-b07f-c529a133c371}, ! UUID
  {fd7c776b-b8ab-44c7-a475-c57d90407154}, ! Version UUID
  1366308813,                             ! Creation Timestamp
  1366308813,                             ! Version Timestamp
  {9ce29655-20af-420d-a8fb-58dc547c4d6f}; ! Name of Object 1

