
OS:Version,
  {7cb6d3a1-0732-429a-9f78-882d60b79e56}, ! Handle
  0.9.3;                                  ! Version Identifier

OS:SizingPeriod:DesignDay,
  {99272884-f468-4fb2-8ffb-b50b8eee8c03}, ! Handle
  ANNETTE Ann Clg 2% Condns WB=>MDB,      ! Name
  17.8,                                   ! Maximum Dry-Bulb Temperature {C}
  5.2,                                    ! Daily Dry-Bulb Temperature Range {deltaC}
  15,                                     ! Humidity Indicating Conditions at Maximum Dry-Bulb {BasedOnField A3}
  100917,                                 ! Barometric Pressure {Pa}
  3.4,                                    ! Wind Speed {m/s}
  300,                                    ! Wind Direction {deg}
  0,                                      ! Sky Clearness
  0,                                      ! Rain Indicator
  0,                                      ! Snow Indicator
  21,                                     ! Day of Month
  8,                                      ! Month
  SummerDesignDay,                        ! Day Type
  0,                                      ! Daylight Saving Time Indicator
  Wetbulb,                                ! Humidity Indicating Type
  ,                                       ! Humidity Indicating Day Schedule Name
  DefaultMultipliers,                     ! Dry-Bulb Temperature Range Modifier Type
  ,                                       ! Dry-Bulb Temperature Range Modifier Schedule Name
  ASHRAETau,                              ! Solar Model Indicator
  ,                                       ! Beam Solar Day Schedule Name
  ,                                       ! Diffuse Solar Day Schedule Name
  0.369,                                  ! ASHRAE Taub {dimensionless}
  2.372;                                  ! ASHRAE Taud {dimensionless}

OS:ComponentData,
  {86a93976-da24-4a38-a266-643976a049ec}, ! Handle
  Component Data 1,                       ! Name
  {00edb248-db1c-4b20-b5d5-850968f81470}, ! UUID
  {d058b37e-1a97-4ce8-ada6-88d980dfdb7e}, ! Version UUID
  1366304718,                             ! Creation Timestamp
  1366304718,                             ! Version Timestamp
  {99272884-f468-4fb2-8ffb-b50b8eee8c03}; ! Name of Object 1

