
OS:Version,
  {63ff0ce2-c179-4889-a590-4490945393a7}, ! Handle
  0.9.3;                                  ! Version Identifier

OS:SizingPeriod:DesignDay,
  {5cd8e70b-f64a-4cc7-aa04-3eb3482240ab}, ! Handle
  Kotzebue Ralph Wein Memorial Ann Clg 2% Condns DP=>MDB, ! Name
  15.2,                                   ! Maximum Dry-Bulb Temperature {C}
  4.9,                                    ! Daily Dry-Bulb Temperature Range {deltaC}
  12.2,                                   ! Humidity Indicating Conditions at Maximum Dry-Bulb {BasedOnField A3}
  101289,                                 ! Barometric Pressure {Pa}
  4.7,                                    ! Wind Speed {m/s}
  300,                                    ! Wind Direction {deg}
  0,                                      ! Sky Clearness
  0,                                      ! Rain Indicator
  0,                                      ! Snow Indicator
  21,                                     ! Day of Month
  7,                                      ! Month
  SummerDesignDay,                        ! Day Type
  0,                                      ! Daylight Saving Time Indicator
  Dewpoint,                               ! Humidity Indicating Type
  ,                                       ! Humidity Indicating Day Schedule Name
  DefaultMultipliers,                     ! Dry-Bulb Temperature Range Modifier Type
  ,                                       ! Dry-Bulb Temperature Range Modifier Schedule Name
  ASHRAETau,                              ! Solar Model Indicator
  ,                                       ! Beam Solar Day Schedule Name
  ,                                       ! Diffuse Solar Day Schedule Name
  0.374,                                  ! ASHRAE Taub {dimensionless}
  2.244;                                  ! ASHRAE Taud {dimensionless}

OS:ComponentData,
  {0ca4fa7d-50d2-4aae-a830-ec405532d8ea}, ! Handle
  Component Data 1,                       ! Name
  {40d41529-0134-4415-ba3e-c1863ebcd476}, ! UUID
  {e73e04f8-bbc3-4f1f-a3ef-20d49b8c4b40}, ! Version UUID
  1366305389,                             ! Creation Timestamp
  1366305389,                             ! Version Timestamp
  {5cd8e70b-f64a-4cc7-aa04-3eb3482240ab}; ! Name of Object 1

