
OS:Version,
  {f400da7d-a4b0-4f43-b8c8-69aba914eff4}, ! Handle
  0.9.3;                                  ! Version Identifier

OS:SizingPeriod:DesignDay,
  {a02d8519-89aa-4ec9-ad47-29a59d0aa409}, ! Handle
  Brewster Field Arpt Ann Clg .4% Condns DP=>MDB, ! Name
  28.4,                                   ! Maximum Dry-Bulb Temperature {C}
  12.5,                                   ! Daily Dry-Bulb Temperature Range {deltaC}
  22.6,                                   ! Humidity Indicating Conditions at Maximum Dry-Bulb {BasedOnField A3}
  93149,                                  ! Barometric Pressure {Pa}
  5.5,                                    ! Wind Speed {m/s}
  180,                                    ! Wind Direction {deg}
  0,                                      ! Sky Clearness
  0,                                      ! Rain Indicator
  0,                                      ! Snow Indicator
  21,                                     ! Day of Month
  7,                                      ! Month
  SummerDesignDay,                        ! Day Type
  0,                                      ! Daylight Saving Time Indicator
  Dewpoint,                               ! Humidity Indicating Type
  ,                                       ! Humidity Indicating Day Schedule Name
  DefaultMultipliers,                     ! Dry-Bulb Temperature Range Modifier Type
  ,                                       ! Dry-Bulb Temperature Range Modifier Schedule Name
  ASHRAETau,                              ! Solar Model Indicator
  ,                                       ! Beam Solar Day Schedule Name
  ,                                       ! Diffuse Solar Day Schedule Name
  0.401,                                  ! ASHRAE Taub {dimensionless}
  2.224;                                  ! ASHRAE Taud {dimensionless}

OS:ComponentData,
  {66d6df11-e76b-4ca4-a585-38d9ea9558f2}, ! Handle
  Component Data 1,                       ! Name
  {7d32fe08-6789-499c-b7dc-72258fd8043a}, ! UUID
  {7f787ad9-12f7-4998-8a75-5798695432c3}, ! Version UUID
  1366309130,                             ! Creation Timestamp
  1366309130,                             ! Version Timestamp
  {a02d8519-89aa-4ec9-ad47-29a59d0aa409}; ! Name of Object 1

