
OS:Version,
  {093f111d-16eb-41c0-bac9-154b68593793}, ! Handle
  0.9.3;                                  ! Version Identifier

OS:SizingPeriod:DesignDay,
  {db3b779d-828e-40ca-b346-e8c46b6b8304}, ! Handle
  AKRON Ann Htg Wind 99% Condns WS=>MCDB, ! Name
  -3.9,                                   ! Maximum Dry-Bulb Temperature {C}
  0,                                      ! Daily Dry-Bulb Temperature Range {deltaC}
  -3.9,                                   ! Humidity Indicating Conditions at Maximum Dry-Bulb {BasedOnField A3}
  96877,                                  ! Barometric Pressure {Pa}
  11.1,                                   ! Wind Speed {m/s}
  240,                                    ! Wind Direction {deg}
  0,                                      ! Sky Clearness
  0,                                      ! Rain Indicator
  0,                                      ! Snow Indicator
  21,                                     ! Day of Month
  1,                                      ! Month
  WinterDesignDay,                        ! Day Type
  0,                                      ! Daylight Saving Time Indicator
  Wetbulb,                                ! Humidity Indicating Type
  ,                                       ! Humidity Indicating Day Schedule Name
  DefaultMultipliers,                     ! Dry-Bulb Temperature Range Modifier Type
  ,                                       ! Dry-Bulb Temperature Range Modifier Schedule Name
  ASHRAEClearSky;                         ! Solar Model Indicator

OS:ComponentData,
  {09726d65-c375-424d-be67-e5c96ef26705}, ! Handle
  Component Data 1,                       ! Name
  {04081c4a-a9c1-47b8-a37b-b0986caacc40}, ! UUID
  {f81bc3b8-cca3-49cb-b3d4-cd57599dd05b}, ! Version UUID
  1366309760,                             ! Creation Timestamp
  1366309760,                             ! Version Timestamp
  {db3b779d-828e-40ca-b346-e8c46b6b8304}; ! Name of Object 1

