
OS:Version,
  {88dfeb64-f5e9-481e-901b-5328fef6598d}, ! Handle
  0.9.3;                                  ! Version Identifier

OS:SizingPeriod:DesignDay,
  {4cc70c69-65fe-409f-9602-1d08b77e64c7}, ! Handle
  HURON Ann Clg .4% Condns DP=>MDB,       ! Name
  28.7,                                   ! Maximum Dry-Bulb Temperature {C}
  12.7,                                   ! Daily Dry-Bulb Temperature Range {deltaC}
  23.4,                                   ! Humidity Indicating Conditions at Maximum Dry-Bulb {BasedOnField A3}
  96692,                                  ! Barometric Pressure {Pa}
  6,                                      ! Wind Speed {m/s}
  180,                                    ! Wind Direction {deg}
  0,                                      ! Sky Clearness
  0,                                      ! Rain Indicator
  0,                                      ! Snow Indicator
  21,                                     ! Day of Month
  7,                                      ! Month
  SummerDesignDay,                        ! Day Type
  0,                                      ! Daylight Saving Time Indicator
  Dewpoint,                               ! Humidity Indicating Type
  ,                                       ! Humidity Indicating Day Schedule Name
  DefaultMultipliers,                     ! Dry-Bulb Temperature Range Modifier Type
  ,                                       ! Dry-Bulb Temperature Range Modifier Schedule Name
  ASHRAETau,                              ! Solar Model Indicator
  ,                                       ! Beam Solar Day Schedule Name
  ,                                       ! Diffuse Solar Day Schedule Name
  0.398,                                  ! ASHRAE Taub {dimensionless}
  2.269;                                  ! ASHRAE Taud {dimensionless}

OS:ComponentData,
  {4d9bf256-7a78-48f9-89df-344e026d9290}, ! Handle
  Component Data 1,                       ! Name
  {703f0d7f-53aa-4069-8dcb-563e6ab3059b}, ! UUID
  {6dc48b32-b7c7-4c8e-8684-ed37d1cc3c3c}, ! Version UUID
  1366310400,                             ! Creation Timestamp
  1366310400,                             ! Version Timestamp
  {4cc70c69-65fe-409f-9602-1d08b77e64c7}; ! Name of Object 1

