
OS:Version,
  {e555cfdb-4960-47a0-ac1e-7b49307d2c09}, ! Handle
  0.9.3;                                  ! Version Identifier

OS:SizingPeriod:DesignDay,
  {599d81ad-86c8-47f3-b93d-b5f1a326a441}, ! Handle
  Bar Harbor  Awos Ann Clg 2% Condns Enth=>MDB, ! Name
  21.9,                                   ! Maximum Dry-Bulb Temperature {C}
  9.6,                                    ! Daily Dry-Bulb Temperature Range {deltaC}
  54400,                                  ! Humidity Indicating Conditions at Maximum Dry-Bulb {BasedOnField A3}
  101013,                                 ! Barometric Pressure {Pa}
  4,                                      ! Wind Speed {m/s}
  220,                                    ! Wind Direction {deg}
  0,                                      ! Sky Clearness
  0,                                      ! Rain Indicator
  0,                                      ! Snow Indicator
  21,                                     ! Day of Month
  7,                                      ! Month
  SummerDesignDay,                        ! Day Type
  0,                                      ! Daylight Saving Time Indicator
  Enthalpy,                               ! Humidity Indicating Type
  ,                                       ! Humidity Indicating Day Schedule Name
  DefaultMultipliers,                     ! Dry-Bulb Temperature Range Modifier Type
  ,                                       ! Dry-Bulb Temperature Range Modifier Schedule Name
  ASHRAETau,                              ! Solar Model Indicator
  ,                                       ! Beam Solar Day Schedule Name
  ,                                       ! Diffuse Solar Day Schedule Name
  0.469,                                  ! ASHRAE Taub {dimensionless}
  1.996;                                  ! ASHRAE Taud {dimensionless}

OS:ComponentData,
  {f4f061d0-f7b8-4a83-9fa0-86679e09c51a}, ! Handle
  Component Data 1,                       ! Name
  {b4e2b425-4906-449b-a44b-4e0dd666024e}, ! UUID
  {41b7b202-c9f8-47a8-94fd-e442cc1099f9}, ! Version UUID
  1366307880,                             ! Creation Timestamp
  1366307880,                             ! Version Timestamp
  {599d81ad-86c8-47f3-b93d-b5f1a326a441}; ! Name of Object 1

