
OS:Version,
  {c35bfb8d-be8c-49a8-a1af-a92a4d684b46}, ! Handle
  0.9.3;                                  ! Version Identifier

OS:SizingPeriod:DesignDay,
  {619b96ae-be87-4bda-915c-c3cfda9ef555}, ! Handle
  Alexandria Esler Regional Ap Ann Clg 2% Condns WB=>MDB, ! Name
  31.3,                                   ! Maximum Dry-Bulb Temperature {C}
  11.3,                                   ! Daily Dry-Bulb Temperature Range {deltaC}
  26,                                     ! Humidity Indicating Conditions at Maximum Dry-Bulb {BasedOnField A3}
  100917,                                 ! Barometric Pressure {Pa}
  3,                                      ! Wind Speed {m/s}
  60,                                     ! Wind Direction {deg}
  0,                                      ! Sky Clearness
  0,                                      ! Rain Indicator
  0,                                      ! Snow Indicator
  21,                                     ! Day of Month
  7,                                      ! Month
  SummerDesignDay,                        ! Day Type
  0,                                      ! Daylight Saving Time Indicator
  Wetbulb,                                ! Humidity Indicating Type
  ,                                       ! Humidity Indicating Day Schedule Name
  DefaultMultipliers,                     ! Dry-Bulb Temperature Range Modifier Type
  ,                                       ! Dry-Bulb Temperature Range Modifier Schedule Name
  ASHRAETau,                              ! Solar Model Indicator
  ,                                       ! Beam Solar Day Schedule Name
  ,                                       ! Diffuse Solar Day Schedule Name
  0.519,                                  ! ASHRAE Taub {dimensionless}
  1.913;                                  ! ASHRAE Taud {dimensionless}

OS:ComponentData,
  {4d58844c-7203-4a2c-9954-1f4a5bf656cd}, ! Handle
  Component Data 1,                       ! Name
  {8de8dcea-7f67-45a9-94ac-7fbd44ca7193}, ! UUID
  {f048d7f0-e749-4d16-834a-e55836dffa4a}, ! Version UUID
  1366307695,                             ! Creation Timestamp
  1366307695,                             ! Version Timestamp
  {619b96ae-be87-4bda-915c-c3cfda9ef555}; ! Name of Object 1

