
OS:Version,
  {508bcbed-fb20-4418-9f77-4be032792321}, ! Handle
  0.9.3;                                  ! Version Identifier

OS:SizingPeriod:DesignDay,
  {9cb1d58b-cb1b-4dbc-a260-1d1f9cb8fe8f}, ! Handle
  KODIAK Ann Htg Wind 99% Condns WS=>MCDB, ! Name
  1.5,                                    ! Maximum Dry-Bulb Temperature {C}
  0,                                      ! Daily Dry-Bulb Temperature Range {deltaC}
  1.5,                                    ! Humidity Indicating Conditions at Maximum Dry-Bulb {BasedOnField A3}
  100917,                                 ! Barometric Pressure {Pa}
  15.6,                                   ! Wind Speed {m/s}
  300,                                    ! Wind Direction {deg}
  0,                                      ! Sky Clearness
  0,                                      ! Rain Indicator
  0,                                      ! Snow Indicator
  21,                                     ! Day of Month
  1,                                      ! Month
  WinterDesignDay,                        ! Day Type
  0,                                      ! Daylight Saving Time Indicator
  Wetbulb,                                ! Humidity Indicating Type
  ,                                       ! Humidity Indicating Day Schedule Name
  DefaultMultipliers,                     ! Dry-Bulb Temperature Range Modifier Type
  ,                                       ! Dry-Bulb Temperature Range Modifier Schedule Name
  ASHRAEClearSky;                         ! Solar Model Indicator

OS:ComponentData,
  {a1baee5f-795b-42e3-acde-bb535b9ef58b}, ! Handle
  Component Data 1,                       ! Name
  {88f3ca27-04dc-4ca7-8571-d93c99c5a0fd}, ! UUID
  {df99a9bf-e597-4109-b2e3-e2e2b4abae2a}, ! Version UUID
  1366305370,                             ! Creation Timestamp
  1366305370,                             ! Version Timestamp
  {9cb1d58b-cb1b-4dbc-a260-1d1f9cb8fe8f}; ! Name of Object 1

