
OS:Version,
  {77af5dbb-5fcf-406f-afd7-7a98623ac84d}, ! Handle
  0.9.3;                                  ! Version Identifier

OS:SizingPeriod:DesignDay,
  {57c62e1c-4c04-479e-8c92-5e85c896a10d}, ! Handle
  Flint Bishop Intl Arpt Ann Clg .4% Condns DB=>MWB, ! Name
  31.9,                                   ! Maximum Dry-Bulb Temperature {C}
  11.7,                                   ! Daily Dry-Bulb Temperature Range {deltaC}
  23.3,                                   ! Humidity Indicating Conditions at Maximum Dry-Bulb {BasedOnField A3}
  98545,                                  ! Barometric Pressure {Pa}
  5.3,                                    ! Wind Speed {m/s}
  250,                                    ! Wind Direction {deg}
  0,                                      ! Sky Clearness
  0,                                      ! Rain Indicator
  0,                                      ! Snow Indicator
  21,                                     ! Day of Month
  7,                                      ! Month
  SummerDesignDay,                        ! Day Type
  0,                                      ! Daylight Saving Time Indicator
  Wetbulb,                                ! Humidity Indicating Type
  ,                                       ! Humidity Indicating Day Schedule Name
  DefaultMultipliers,                     ! Dry-Bulb Temperature Range Modifier Type
  ,                                       ! Dry-Bulb Temperature Range Modifier Schedule Name
  ASHRAETau,                              ! Solar Model Indicator
  ,                                       ! Beam Solar Day Schedule Name
  ,                                       ! Diffuse Solar Day Schedule Name
  0.449,                                  ! ASHRAE Taub {dimensionless}
  2.044;                                  ! ASHRAE Taud {dimensionless}

OS:ComponentData,
  {71343b31-68c1-4069-8f9b-98610817a89b}, ! Handle
  Component Data 1,                       ! Name
  {1698c9f1-78ed-4ccb-9021-db2c55f161b1}, ! UUID
  {23400155-3d7b-4688-9155-2a3eae2c6687}, ! Version UUID
  1366307999,                             ! Creation Timestamp
  1366307999,                             ! Version Timestamp
  {57c62e1c-4c04-479e-8c92-5e85c896a10d}; ! Name of Object 1

