
OS:Version,
  {052a7c27-a6aa-40b5-a307-1e38b64dcb30}, ! Handle
  0.9.3;                                  ! Version Identifier

OS:SizingPeriod:DesignDay,
  {104c4b50-1521-4747-8cbd-95a70a48d519}, ! Handle
  Denver-Stapleton Ann Clg .4% Condns Enth=>MDB, ! Name
  27.9,                                   ! Maximum Dry-Bulb Temperature {C}
  15.2,                                   ! Daily Dry-Bulb Temperature Range {deltaC}
  57700,                                  ! Humidity Indicating Conditions at Maximum Dry-Bulb {BasedOnField A3}
  83411,                                  ! Barometric Pressure {Pa}
  4,                                      ! Wind Speed {m/s}
  120,                                    ! Wind Direction {deg}
  0,                                      ! Sky Clearness
  0,                                      ! Rain Indicator
  0,                                      ! Snow Indicator
  21,                                     ! Day of Month
  7,                                      ! Month
  SummerDesignDay,                        ! Day Type
  0,                                      ! Daylight Saving Time Indicator
  Enthalpy,                               ! Humidity Indicating Type
  ,                                       ! Humidity Indicating Day Schedule Name
  DefaultMultipliers,                     ! Dry-Bulb Temperature Range Modifier Type
  ,                                       ! Dry-Bulb Temperature Range Modifier Schedule Name
  ASHRAETau,                              ! Solar Model Indicator
  ,                                       ! Beam Solar Day Schedule Name
  ,                                       ! Diffuse Solar Day Schedule Name
  0.435,                                  ! ASHRAE Taub {dimensionless}
  1.996;                                  ! ASHRAE Taud {dimensionless}

OS:ComponentData,
  {db2ffc2f-8fdc-47a7-985f-422d07f0bc72}, ! Handle
  Component Data 1,                       ! Name
  {c27ddab4-84e5-43fc-815e-da517a1f198c}, ! UUID
  {0612d068-7748-4661-b591-e7d11e0dcbd6}, ! Version UUID
  1366306675,                             ! Creation Timestamp
  1366306675,                             ! Version Timestamp
  {104c4b50-1521-4747-8cbd-95a70a48d519}; ! Name of Object 1

