
OS:Version,
  {35280f6f-3a91-4c58-8744-8774e813a3b7}, ! Handle
  0.9.3;                                  ! Version Identifier

OS:SizingPeriod:DesignDay,
  {ee24dce4-4a91-49d8-9001-f12a37c5b266}, ! Handle
  Denver-Stapleton Ann Clg .4% Condns Enth=>MDB, ! Name
  27.9,                                   ! Maximum Dry-Bulb Temperature {C}
  15.2,                                   ! Daily Dry-Bulb Temperature Range {deltaC}
  57700,                                  ! Humidity Indicating Conditions at Maximum Dry-Bulb {BasedOnField A3}
  83411,                                  ! Barometric Pressure {Pa}
  4,                                      ! Wind Speed {m/s}
  120,                                    ! Wind Direction {deg}
  0,                                      ! Sky Clearness
  0,                                      ! Rain Indicator
  0,                                      ! Snow Indicator
  21,                                     ! Day of Month
  7,                                      ! Month
  SummerDesignDay,                        ! Day Type
  0,                                      ! Daylight Saving Time Indicator
  Enthalpy,                               ! Humidity Indicating Type
  ,                                       ! Humidity Indicating Day Schedule Name
  DefaultMultipliers,                     ! Dry-Bulb Temperature Range Modifier Type
  ,                                       ! Dry-Bulb Temperature Range Modifier Schedule Name
  ASHRAETau,                              ! Solar Model Indicator
  ,                                       ! Beam Solar Day Schedule Name
  ,                                       ! Diffuse Solar Day Schedule Name
  0.435,                                  ! ASHRAE Taub {dimensionless}
  1.996;                                  ! ASHRAE Taud {dimensionless}

