
OS:Version,
  {2b6449f5-3daf-42b3-83cd-c645c290e835}, ! Handle
  0.9.3;                                  ! Version Identifier

OS:SizingPeriod:DesignDay,
  {22cae234-ecb9-44de-82fb-ba3b3f7571d5}, ! Handle
  Cadillac Wexford Co Ap Ann Clg 1% Condns DP=>MDB, ! Name
  24.9,                                   ! Maximum Dry-Bulb Temperature {C}
  13.5,                                   ! Daily Dry-Bulb Temperature Range {deltaC}
  21.6,                                   ! Humidity Indicating Conditions at Maximum Dry-Bulb {BasedOnField A3}
  96657,                                  ! Barometric Pressure {Pa}
  4.8,                                    ! Wind Speed {m/s}
  250,                                    ! Wind Direction {deg}
  0,                                      ! Sky Clearness
  0,                                      ! Rain Indicator
  0,                                      ! Snow Indicator
  21,                                     ! Day of Month
  7,                                      ! Month
  SummerDesignDay,                        ! Day Type
  0,                                      ! Daylight Saving Time Indicator
  Dewpoint,                               ! Humidity Indicating Type
  ,                                       ! Humidity Indicating Day Schedule Name
  DefaultMultipliers,                     ! Dry-Bulb Temperature Range Modifier Type
  ,                                       ! Dry-Bulb Temperature Range Modifier Schedule Name
  ASHRAETau,                              ! Solar Model Indicator
  ,                                       ! Beam Solar Day Schedule Name
  ,                                       ! Diffuse Solar Day Schedule Name
  0.41,                                   ! ASHRAE Taub {dimensionless}
  2.203;                                  ! ASHRAE Taud {dimensionless}

OS:ComponentData,
  {1af6645c-c900-4a18-acc8-2a81ebbab4c0}, ! Handle
  Component Data 1,                       ! Name
  {5d4b89ab-e00d-43c1-9acd-48f267fde7b7}, ! UUID
  {6d25ecec-ec89-4c1e-b35a-fa89e5ea4e10}, ! Version UUID
  1366307964,                             ! Creation Timestamp
  1366307964,                             ! Version Timestamp
  {22cae234-ecb9-44de-82fb-ba3b3f7571d5}; ! Name of Object 1

