
OS:Version,
  {53acfe49-e6b1-40da-8c64-65540d27fc4e}, ! Handle
  0.9.3;                                  ! Version Identifier

OS:SizingPeriod:DesignDay,
  {ce66eb2a-54e4-47e6-89d8-0292f45d801f}, ! Handle
  Caldwell  Awos Ann Hum_n 99% Condns DP=>MCDB, ! Name
  -6.6,                                   ! Maximum Dry-Bulb Temperature {C}
  0,                                      ! Daily Dry-Bulb Temperature Range {deltaC}
  -12.9,                                  ! Humidity Indicating Conditions at Maximum Dry-Bulb {BasedOnField A3}
  92745,                                  ! Barometric Pressure {Pa}
  1.3,                                    ! Wind Speed {m/s}
  130,                                    ! Wind Direction {deg}
  0,                                      ! Sky Clearness
  0,                                      ! Rain Indicator
  0,                                      ! Snow Indicator
  21,                                     ! Day of Month
  12,                                     ! Month
  WinterDesignDay,                        ! Day Type
  0,                                      ! Daylight Saving Time Indicator
  Dewpoint,                               ! Humidity Indicating Type
  ,                                       ! Humidity Indicating Day Schedule Name
  DefaultMultipliers,                     ! Dry-Bulb Temperature Range Modifier Type
  ,                                       ! Dry-Bulb Temperature Range Modifier Schedule Name
  ASHRAEClearSky;                         ! Solar Model Indicator

OS:ComponentData,
  {aa17db84-ddc5-4603-bb61-bdadfe4a5138}, ! Handle
  Component Data 1,                       ! Name
  {ab85414f-3447-4ff3-9503-432d622eac13}, ! UUID
  {a8688ff1-a6e2-4ed7-8387-7f3679de415a}, ! Version UUID
  1366307276,                             ! Creation Timestamp
  1366307276,                             ! Version Timestamp
  {ce66eb2a-54e4-47e6-89d8-0292f45d801f}; ! Name of Object 1

