
OS:Version,
  {fb0c4c9e-ceb8-43f6-9095-dc26c5e69182}, ! Handle
  0.9.3;                                  ! Version Identifier

OS:SizingPeriod:DesignDay,
  {8c14ecdc-50c4-4dc7-9211-972ac1a2926e}, ! Handle
  International Falls Intl Ap Ann Clg 2% Condns Enth=>MDB, ! Name
  24.6,                                   ! Maximum Dry-Bulb Temperature {C}
  12.4,                                   ! Daily Dry-Bulb Temperature Range {deltaC}
  59900,                                  ! Humidity Indicating Conditions at Maximum Dry-Bulb {BasedOnField A3}
  97086,                                  ! Barometric Pressure {Pa}
  4.7,                                    ! Wind Speed {m/s}
  200,                                    ! Wind Direction {deg}
  0,                                      ! Sky Clearness
  0,                                      ! Rain Indicator
  0,                                      ! Snow Indicator
  21,                                     ! Day of Month
  7,                                      ! Month
  SummerDesignDay,                        ! Day Type
  0,                                      ! Daylight Saving Time Indicator
  Enthalpy,                               ! Humidity Indicating Type
  ,                                       ! Humidity Indicating Day Schedule Name
  DefaultMultipliers,                     ! Dry-Bulb Temperature Range Modifier Type
  ,                                       ! Dry-Bulb Temperature Range Modifier Schedule Name
  ASHRAETau,                              ! Solar Model Indicator
  ,                                       ! Beam Solar Day Schedule Name
  ,                                       ! Diffuse Solar Day Schedule Name
  0.405,                                  ! ASHRAE Taub {dimensionless}
  2.2;                                    ! ASHRAE Taud {dimensionless}

OS:ComponentData,
  {099df082-a064-42ab-a9f0-d6da1a6e0516}, ! Handle
  Component Data 1,                       ! Name
  {9206f7db-3a1b-40d5-87e9-152fbbce91b1}, ! UUID
  {79ac3255-60a1-46b7-9f19-4ac7a691c95b}, ! Version UUID
  1366308278,                             ! Creation Timestamp
  1366308278,                             ! Version Timestamp
  {8c14ecdc-50c4-4dc7-9211-972ac1a2926e}; ! Name of Object 1

