
OS:Version,
  {8563f2c5-0866-44f1-8468-28f8ef6df7b9}, ! Handle
  0.9.3;                                  ! Version Identifier

OS:SizingPeriod:DesignDay,
  {01edbbfc-2631-4413-9529-9dc579b1c602}, ! Handle
  Brainerd Wieland Ann Clg 2% Condns Enth=>MDB, ! Name
  26.1,                                   ! Maximum Dry-Bulb Temperature {C}
  11.7,                                   ! Daily Dry-Bulb Temperature Range {deltaC}
  64600,                                  ! Humidity Indicating Conditions at Maximum Dry-Bulb {BasedOnField A3}
  96912,                                  ! Barometric Pressure {Pa}
  5.2,                                    ! Wind Speed {m/s}
  200,                                    ! Wind Direction {deg}
  0,                                      ! Sky Clearness
  0,                                      ! Rain Indicator
  0,                                      ! Snow Indicator
  21,                                     ! Day of Month
  7,                                      ! Month
  SummerDesignDay,                        ! Day Type
  0,                                      ! Daylight Saving Time Indicator
  Enthalpy,                               ! Humidity Indicating Type
  ,                                       ! Humidity Indicating Day Schedule Name
  DefaultMultipliers,                     ! Dry-Bulb Temperature Range Modifier Type
  ,                                       ! Dry-Bulb Temperature Range Modifier Schedule Name
  ASHRAETau,                              ! Solar Model Indicator
  ,                                       ! Beam Solar Day Schedule Name
  ,                                       ! Diffuse Solar Day Schedule Name
  0.394,                                  ! ASHRAE Taub {dimensionless}
  2.249;                                  ! ASHRAE Taud {dimensionless}

OS:ComponentData,
  {6fb4545a-04ef-43f6-92e8-16c51d72c829}, ! Handle
  Component Data 1,                       ! Name
  {1989e8e8-e30d-48fe-bbbe-22ac5177ef89}, ! UUID
  {ecb98dae-8f93-41b4-b0b1-56cb35a293c0}, ! Version UUID
  1366308172,                             ! Creation Timestamp
  1366308172,                             ! Version Timestamp
  {01edbbfc-2631-4413-9529-9dc579b1c602}; ! Name of Object 1

