
OS:Version,
  {5ece927d-cc6c-41e4-9bf2-05df0a6e91c5}, ! Handle
  0.9.3;                                  ! Version Identifier

OS:SizingPeriod:DesignDay,
  {bddbb9a8-c45c-48d6-ab63-bbb8ea76dcbe}, ! Handle
  LANDER Ann Htg Wind 99.6% Condns WS=>MCDB, ! Name
  4.5,                                    ! Maximum Dry-Bulb Temperature {C}
  0,                                      ! Daily Dry-Bulb Temperature Range {deltaC}
  4.5,                                    ! Humidity Indicating Conditions at Maximum Dry-Bulb {BasedOnField A3}
  82542,                                  ! Barometric Pressure {Pa}
  12.6,                                   ! Wind Speed {m/s}
  140,                                    ! Wind Direction {deg}
  0,                                      ! Sky Clearness
  0,                                      ! Rain Indicator
  0,                                      ! Snow Indicator
  21,                                     ! Day of Month
  12,                                     ! Month
  WinterDesignDay,                        ! Day Type
  0,                                      ! Daylight Saving Time Indicator
  Wetbulb,                                ! Humidity Indicating Type
  ,                                       ! Humidity Indicating Day Schedule Name
  DefaultMultipliers,                     ! Dry-Bulb Temperature Range Modifier Type
  ,                                       ! Dry-Bulb Temperature Range Modifier Schedule Name
  ASHRAEClearSky;                         ! Solar Model Indicator

OS:ComponentData,
  {53defaa9-3d19-462c-b89c-fda4ac1c003e}, ! Handle
  Component Data 1,                       ! Name
  {a4f39ade-3148-47ec-8199-8004857900f2}, ! UUID
  {09eeeae3-1559-4bb4-ad3a-3d54ee2921f2}, ! Version UUID
  1366311754,                             ! Creation Timestamp
  1366311754,                             ! Version Timestamp
  {bddbb9a8-c45c-48d6-ab63-bbb8ea76dcbe}; ! Name of Object 1

