
OS:Version,
  {d95a4ec9-dd22-4fe9-9132-ea60e10edcd6}, ! Handle
  0.9.3;                                  ! Version Identifier

OS:SizingPeriod:DesignDay,
  {91703649-7f26-4f12-90d9-41889c90b8af}, ! Handle
  Fairmont Muni Awos Ann Htg Wind 99% Condns WS=>MCDB, ! Name
  -12.2,                                  ! Maximum Dry-Bulb Temperature {C}
  0,                                      ! Daily Dry-Bulb Temperature Range {deltaC}
  -12.2,                                  ! Humidity Indicating Conditions at Maximum Dry-Bulb {BasedOnField A3}
  97144,                                  ! Barometric Pressure {Pa}
  14.5,                                   ! Wind Speed {m/s}
  330,                                    ! Wind Direction {deg}
  0,                                      ! Sky Clearness
  0,                                      ! Rain Indicator
  0,                                      ! Snow Indicator
  21,                                     ! Day of Month
  1,                                      ! Month
  WinterDesignDay,                        ! Day Type
  0,                                      ! Daylight Saving Time Indicator
  Wetbulb,                                ! Humidity Indicating Type
  ,                                       ! Humidity Indicating Day Schedule Name
  DefaultMultipliers,                     ! Dry-Bulb Temperature Range Modifier Type
  ,                                       ! Dry-Bulb Temperature Range Modifier Schedule Name
  ASHRAEClearSky;                         ! Solar Model Indicator

OS:ComponentData,
  {8a2839ac-38b8-4bba-b6a4-f15967cd8c43}, ! Handle
  Component Data 1,                       ! Name
  {42724496-9f72-4679-85d9-bfa1a7645467}, ! UUID
  {5a9c8a13-a849-4de8-9a47-af780797a99a}, ! Version UUID
  1366308224,                             ! Creation Timestamp
  1366308224,                             ! Version Timestamp
  {91703649-7f26-4f12-90d9-41889c90b8af}; ! Name of Object 1

