
OS:Version,
  {507589e8-651a-446a-82f0-8702d046f69a}, ! Handle
  0.9.3;                                  ! Version Identifier

OS:SizingPeriod:DesignDay,
  {c30d1943-cbea-4a22-92de-61111b858734}, ! Handle
  Kenai Municipal Ap Ann Clg 2% Condns WB=>MDB, ! Name
  16.5,                                   ! Maximum Dry-Bulb Temperature {C}
  7.5,                                    ! Daily Dry-Bulb Temperature Range {deltaC}
  13.5,                                   ! Humidity Indicating Conditions at Maximum Dry-Bulb {BasedOnField A3}
  101013,                                 ! Barometric Pressure {Pa}
  4,                                      ! Wind Speed {m/s}
  270,                                    ! Wind Direction {deg}
  0,                                      ! Sky Clearness
  0,                                      ! Rain Indicator
  0,                                      ! Snow Indicator
  21,                                     ! Day of Month
  7,                                      ! Month
  SummerDesignDay,                        ! Day Type
  0,                                      ! Daylight Saving Time Indicator
  Wetbulb,                                ! Humidity Indicating Type
  ,                                       ! Humidity Indicating Day Schedule Name
  DefaultMultipliers,                     ! Dry-Bulb Temperature Range Modifier Type
  ,                                       ! Dry-Bulb Temperature Range Modifier Schedule Name
  ASHRAETau,                              ! Solar Model Indicator
  ,                                       ! Beam Solar Day Schedule Name
  ,                                       ! Diffuse Solar Day Schedule Name
  0.371,                                  ! ASHRAE Taub {dimensionless}
  2.246;                                  ! ASHRAE Taud {dimensionless}

OS:ComponentData,
  {dde35ba6-45a5-4d0f-b75a-5c05fe53edf2}, ! Handle
  Component Data 1,                       ! Name
  {fe219021-652d-4199-bbb9-51a9158607d2}, ! UUID
  {46540d41-63af-49d6-9872-6c373fb395aa}, ! Version UUID
  1366305349,                             ! Creation Timestamp
  1366305349,                             ! Version Timestamp
  {c30d1943-cbea-4a22-92de-61111b858734}; ! Name of Object 1

