
OS:Version,
  {9a3c8bb2-88b4-45f8-962f-5957da299454}, ! Handle
  0.9.3;                                  ! Version Identifier

OS:SizingPeriod:DesignDay,
  {1fccea6f-9dba-4dce-96d9-ed545cd7cabe}, ! Handle
  Fort Dodge  Awos Ann Hum_n 99.6% Condns DP=>MCDB, ! Name
  -23.2,                                  ! Maximum Dry-Bulb Temperature {C}
  0,                                      ! Daily Dry-Bulb Temperature Range {deltaC}
  -29.2,                                  ! Humidity Indicating Conditions at Maximum Dry-Bulb {BasedOnField A3}
  97132,                                  ! Barometric Pressure {Pa}
  3.3,                                    ! Wind Speed {m/s}
  310,                                    ! Wind Direction {deg}
  0,                                      ! Sky Clearness
  0,                                      ! Rain Indicator
  0,                                      ! Snow Indicator
  21,                                     ! Day of Month
  1,                                      ! Month
  WinterDesignDay,                        ! Day Type
  0,                                      ! Daylight Saving Time Indicator
  Dewpoint,                               ! Humidity Indicating Type
  ,                                       ! Humidity Indicating Day Schedule Name
  DefaultMultipliers,                     ! Dry-Bulb Temperature Range Modifier Type
  ,                                       ! Dry-Bulb Temperature Range Modifier Schedule Name
  ASHRAEClearSky;                         ! Solar Model Indicator

OS:ComponentData,
  {1cb9c68d-299a-4577-8855-106204ca46c6}, ! Handle
  Component Data 1,                       ! Name
  {4e42cdc5-54b9-423b-93fb-889c45958e60}, ! UUID
  {5d8da5a3-8452-43c0-a30f-a7b06c0750b1}, ! Version UUID
  1366307197,                             ! Creation Timestamp
  1366307197,                             ! Version Timestamp
  {1fccea6f-9dba-4dce-96d9-ed545cd7cabe}; ! Name of Object 1

