
OS:Version,
  {7680fa02-d2e2-4024-8d1c-e768d199f3ad}, ! Handle
  0.9.3;                                  ! Version Identifier

OS:SizingPeriod:DesignDay,
  {8e8c341d-86b9-4eee-b335-acbc75bc36e3}, ! Handle
  Imperial Ann Clg 1% Condns Enth=>MDB,   ! Name
  35.8,                                   ! Maximum Dry-Bulb Temperature {C}
  15.8,                                   ! Daily Dry-Bulb Temperature Range {deltaC}
  82900,                                  ! Humidity Indicating Conditions at Maximum Dry-Bulb {BasedOnField A3}
  101529,                                 ! Barometric Pressure {Pa}
  3.5,                                    ! Wind Speed {m/s}
  110,                                    ! Wind Direction {deg}
  0,                                      ! Sky Clearness
  0,                                      ! Rain Indicator
  0,                                      ! Snow Indicator
  21,                                     ! Day of Month
  7,                                      ! Month
  SummerDesignDay,                        ! Day Type
  0,                                      ! Daylight Saving Time Indicator
  Enthalpy,                               ! Humidity Indicating Type
  ,                                       ! Humidity Indicating Day Schedule Name
  DefaultMultipliers,                     ! Dry-Bulb Temperature Range Modifier Type
  ,                                       ! Dry-Bulb Temperature Range Modifier Schedule Name
  ASHRAETau,                              ! Solar Model Indicator
  ,                                       ! Beam Solar Day Schedule Name
  ,                                       ! Diffuse Solar Day Schedule Name
  0.528,                                  ! ASHRAE Taub {dimensionless}
  1.788;                                  ! ASHRAE Taud {dimensionless}

OS:ComponentData,
  {af03175e-86f1-4cbc-9ed9-79200bcee161}, ! Handle
  Component Data 1,                       ! Name
  {2570303b-f111-47d6-9775-f9999b29d8c3}, ! UUID
  {9ab9cf90-f604-4bef-83d6-9b1bd5785dee}, ! Version UUID
  1366306455,                             ! Creation Timestamp
  1366306455,                             ! Version Timestamp
  {8e8c341d-86b9-4eee-b335-acbc75bc36e3}; ! Name of Object 1

