
OS:Version,
  {2069ff2c-f3ee-4278-a5f4-4118ac0ea17d}, ! Handle
  0.9.3;                                  ! Version Identifier

OS:SizingPeriod:DesignDay,
  {f13da259-80ad-48a2-b423-e5e04f8cae83}, ! Handle
  Fort Collins  Awos Ann Clg 1% Condns DB=>MWB, ! Name
  32.7,                                   ! Maximum Dry-Bulb Temperature {C}
  15.7,                                   ! Daily Dry-Bulb Temperature Range {deltaC}
  15.7,                                   ! Humidity Indicating Conditions at Maximum Dry-Bulb {BasedOnField A3}
  84255,                                  ! Barometric Pressure {Pa}
  4.1,                                    ! Wind Speed {m/s}
  150,                                    ! Wind Direction {deg}
  0,                                      ! Sky Clearness
  0,                                      ! Rain Indicator
  0,                                      ! Snow Indicator
  21,                                     ! Day of Month
  7,                                      ! Month
  SummerDesignDay,                        ! Day Type
  0,                                      ! Daylight Saving Time Indicator
  Wetbulb,                                ! Humidity Indicating Type
  ,                                       ! Humidity Indicating Day Schedule Name
  DefaultMultipliers,                     ! Dry-Bulb Temperature Range Modifier Type
  ,                                       ! Dry-Bulb Temperature Range Modifier Schedule Name
  ASHRAETau,                              ! Solar Model Indicator
  ,                                       ! Beam Solar Day Schedule Name
  ,                                       ! Diffuse Solar Day Schedule Name
  0.431,                                  ! ASHRAE Taub {dimensionless}
  2.008;                                  ! ASHRAE Taud {dimensionless}

OS:ComponentData,
  {8657bcaf-c098-4a45-8c3c-f38002547bb7}, ! Handle
  Component Data 1,                       ! Name
  {ed8266b6-17a8-468e-9eb0-ab4bf319ceaa}, ! UUID
  {f64dddc6-21eb-47a4-9353-aa665ef83616}, ! Version UUID
  1366306691,                             ! Creation Timestamp
  1366306691,                             ! Version Timestamp
  {f13da259-80ad-48a2-b423-e5e04f8cae83}; ! Name of Object 1

