
OS:Version,
  {3a13074f-a9c1-4afc-858a-e92eaad3584c}, ! Handle
  0.9.3;                                  ! Version Identifier

OS:SizingPeriod:DesignDay,
  {09dad137-07f8-40cc-a5ae-9862c631457f}, ! Handle
  Bar Harbor  Awos Ann Htg 99% Condns DB, ! Name
  -17.3,                                  ! Maximum Dry-Bulb Temperature {C}
  0,                                      ! Daily Dry-Bulb Temperature Range {deltaC}
  -17.3,                                  ! Humidity Indicating Conditions at Maximum Dry-Bulb {BasedOnField A3}
  101013,                                 ! Barometric Pressure {Pa}
  2.8,                                    ! Wind Speed {m/s}
  310,                                    ! Wind Direction {deg}
  0,                                      ! Sky Clearness
  0,                                      ! Rain Indicator
  0,                                      ! Snow Indicator
  21,                                     ! Day of Month
  1,                                      ! Month
  WinterDesignDay,                        ! Day Type
  0,                                      ! Daylight Saving Time Indicator
  Wetbulb,                                ! Humidity Indicating Type
  ,                                       ! Humidity Indicating Day Schedule Name
  DefaultMultipliers,                     ! Dry-Bulb Temperature Range Modifier Type
  ,                                       ! Dry-Bulb Temperature Range Modifier Schedule Name
  ASHRAEClearSky;                         ! Solar Model Indicator

OS:ComponentData,
  {dd0a860e-6e5f-47f9-be02-522e9532f3eb}, ! Handle
  Component Data 1,                       ! Name
  {0add5e2e-db5f-4a85-8832-d193bbeb6808}, ! UUID
  {6933432b-70fc-4936-b8e9-663f187d2333}, ! Version UUID
  1366307878,                             ! Creation Timestamp
  1366307878,                             ! Version Timestamp
  {09dad137-07f8-40cc-a5ae-9862c631457f}; ! Name of Object 1

