
OS:Version,
  {93d835f9-b994-4d54-8422-7b260a243b83}, ! Handle
  0.9.3;                                  ! Version Identifier

OS:SizingPeriod:DesignDay,
  {6a9ce7b6-a7a3-4605-833d-f90de3f13758}, ! Handle
  Lihue Airport Ann Clg 1% Condns Enth=>MDB, ! Name
  27.7,                                   ! Maximum Dry-Bulb Temperature {C}
  4.8,                                    ! Daily Dry-Bulb Temperature Range {deltaC}
  74700,                                  ! Humidity Indicating Conditions at Maximum Dry-Bulb {BasedOnField A3}
  100953,                                 ! Barometric Pressure {Pa}
  6.4,                                    ! Wind Speed {m/s}
  60,                                     ! Wind Direction {deg}
  0,                                      ! Sky Clearness
  0,                                      ! Rain Indicator
  0,                                      ! Snow Indicator
  21,                                     ! Day of Month
  8,                                      ! Month
  SummerDesignDay,                        ! Day Type
  0,                                      ! Daylight Saving Time Indicator
  Enthalpy,                               ! Humidity Indicating Type
  ,                                       ! Humidity Indicating Day Schedule Name
  DefaultMultipliers,                     ! Dry-Bulb Temperature Range Modifier Type
  ,                                       ! Dry-Bulb Temperature Range Modifier Schedule Name
  ASHRAETau,                              ! Solar Model Indicator
  ,                                       ! Beam Solar Day Schedule Name
  ,                                       ! Diffuse Solar Day Schedule Name
  0.385,                                  ! ASHRAE Taub {dimensionless}
  2.509;                                  ! ASHRAE Taud {dimensionless}

OS:ComponentData,
  {f45e61aa-945f-41a9-afe5-efa64341acb9}, ! Handle
  Component Data 1,                       ! Name
  {56829cc9-7d4a-479f-b4ee-01e568a6d8ef}, ! UUID
  {bef44e6a-05f2-4c44-8ae5-04985a540cc9}, ! Version UUID
  1366307121,                             ! Creation Timestamp
  1366307121,                             ! Version Timestamp
  {6a9ce7b6-a7a3-4605-833d-f90de3f13758}; ! Name of Object 1

