
OS:Version,
  {2b786775-cebe-410e-b85c-1d8e8c64dfdf}, ! Handle
  0.9.3;                                  ! Version Identifier

OS:SizingPeriod:DesignDay,
  {8f15a492-f9a0-42fb-b098-78e6d046e500}, ! Handle
  Jacksonville Intl Arpt Ann Hum_n 99.6% Condns DP=>MCDB, ! Name
  3.8,                                    ! Maximum Dry-Bulb Temperature {C}
  0,                                      ! Daily Dry-Bulb Temperature Range {deltaC}
  -8.9,                                   ! Humidity Indicating Conditions at Maximum Dry-Bulb {BasedOnField A3}
  101229,                                 ! Barometric Pressure {Pa}
  1.9,                                    ! Wind Speed {m/s}
  320,                                    ! Wind Direction {deg}
  0,                                      ! Sky Clearness
  0,                                      ! Rain Indicator
  0,                                      ! Snow Indicator
  21,                                     ! Day of Month
  1,                                      ! Month
  WinterDesignDay,                        ! Day Type
  0,                                      ! Daylight Saving Time Indicator
  Dewpoint,                               ! Humidity Indicating Type
  ,                                       ! Humidity Indicating Day Schedule Name
  DefaultMultipliers,                     ! Dry-Bulb Temperature Range Modifier Type
  ,                                       ! Dry-Bulb Temperature Range Modifier Schedule Name
  ASHRAEClearSky;                         ! Solar Model Indicator

OS:ComponentData,
  {76d39381-47fa-455a-b0ee-62434ef86dd1}, ! Handle
  Component Data 1,                       ! Name
  {08a0efb3-fb00-4e48-b0fc-31389f983524}, ! UUID
  {9edb070f-8a5f-4dfa-b9e1-8cbe915a5cc9}, ! Version UUID
  1366306822,                             ! Creation Timestamp
  1366306822,                             ! Version Timestamp
  {8f15a492-f9a0-42fb-b098-78e6d046e500}; ! Name of Object 1

