
OS:Version,
  {235c032b-9526-4d80-87b6-b94a2e0bf4bf}, ! Handle
  0.9.3;                                  ! Version Identifier

OS:SizingPeriod:DesignDay,
  {a6908484-83be-42b9-a441-12781b482794}, ! Handle
  AMARILLO Ann Clg 2% Condns Enth=>MDB,   ! Name
  29.3,                                   ! Maximum Dry-Bulb Temperature {C}
  13.8,                                   ! Daily Dry-Bulb Temperature Range {deltaC}
  64300,                                  ! Humidity Indicating Conditions at Maximum Dry-Bulb {BasedOnField A3}
  88811,                                  ! Barometric Pressure {Pa}
  6.9,                                    ! Wind Speed {m/s}
  210,                                    ! Wind Direction {deg}
  0,                                      ! Sky Clearness
  0,                                      ! Rain Indicator
  0,                                      ! Snow Indicator
  21,                                     ! Day of Month
  7,                                      ! Month
  SummerDesignDay,                        ! Day Type
  0,                                      ! Daylight Saving Time Indicator
  Enthalpy,                               ! Humidity Indicating Type
  ,                                       ! Humidity Indicating Day Schedule Name
  DefaultMultipliers,                     ! Dry-Bulb Temperature Range Modifier Type
  ,                                       ! Dry-Bulb Temperature Range Modifier Schedule Name
  ASHRAETau,                              ! Solar Model Indicator
  ,                                       ! Beam Solar Day Schedule Name
  ,                                       ! Diffuse Solar Day Schedule Name
  0.414,                                  ! ASHRAE Taub {dimensionless}
  2.136;                                  ! ASHRAE Taud {dimensionless}

OS:ComponentData,
  {8a8d0e86-c737-4984-9981-1582d9e3e029}, ! Handle
  Component Data 1,                       ! Name
  {cf84ae0d-83b7-4944-823a-5480414bb3cf}, ! UUID
  {4c8f4292-6762-4590-926f-297e70927c11}, ! Version UUID
  1366310567,                             ! Creation Timestamp
  1366310567,                             ! Version Timestamp
  {a6908484-83be-42b9-a441-12781b482794}; ! Name of Object 1

