
OS:Version,
  {80d924b4-3463-435f-96f6-6536d64be6bc}, ! Handle
  0.9.3;                                  ! Version Identifier

OS:SizingPeriod:DesignDay,
  {c79b7a2b-f86c-43c0-82f7-115903ad3296}, ! Handle
  Barstow/Daggett Ann Clg .4% Condns DB=>MWB, ! Name
  42.6,                                   ! Maximum Dry-Bulb Temperature {C}
  16.6,                                   ! Daily Dry-Bulb Temperature Range {deltaC}
  21.1,                                   ! Humidity Indicating Conditions at Maximum Dry-Bulb {BasedOnField A3}
  94469,                                  ! Barometric Pressure {Pa}
  4.8,                                    ! Wind Speed {m/s}
  290,                                    ! Wind Direction {deg}
  0,                                      ! Sky Clearness
  0,                                      ! Rain Indicator
  0,                                      ! Snow Indicator
  21,                                     ! Day of Month
  7,                                      ! Month
  SummerDesignDay,                        ! Day Type
  0,                                      ! Daylight Saving Time Indicator
  Wetbulb,                                ! Humidity Indicating Type
  ,                                       ! Humidity Indicating Day Schedule Name
  DefaultMultipliers,                     ! Dry-Bulb Temperature Range Modifier Type
  ,                                       ! Dry-Bulb Temperature Range Modifier Schedule Name
  ASHRAETau,                              ! Solar Model Indicator
  ,                                       ! Beam Solar Day Schedule Name
  ,                                       ! Diffuse Solar Day Schedule Name
  0.497,                                  ! ASHRAE Taub {dimensionless}
  1.821;                                  ! ASHRAE Taud {dimensionless}

OS:ComponentData,
  {e22318e7-92f2-422a-80a3-2323e8240052}, ! Handle
  Component Data 1,                       ! Name
  {de43ec4a-013b-47c0-8ec5-9394b498a110}, ! UUID
  {4b011002-9085-4197-8f2b-f099c8aa334e}, ! Version UUID
  1366306373,                             ! Creation Timestamp
  1366306373,                             ! Version Timestamp
  {c79b7a2b-f86c-43c0-82f7-115903ad3296}; ! Name of Object 1

