
OS:Version,
  {83b2b2d6-37a1-40a2-90b1-3b1ca9ad6c71}, ! Handle
  0.9.3;                                  ! Version Identifier

OS:SizingPeriod:DesignDay,
  {c463699e-7a5a-4b04-8374-99d8e1aa8ea9}, ! Handle
  COLUMBUS Ann Clg 2% Condns DB=>MWB,     ! Name
  33.4,                                   ! Maximum Dry-Bulb Temperature {C}
  10.1,                                   ! Daily Dry-Bulb Temperature Range {deltaC}
  23.5,                                   ! Humidity Indicating Conditions at Maximum Dry-Bulb {BasedOnField A3}
  99702,                                  ! Barometric Pressure {Pa}
  3.7,                                    ! Wind Speed {m/s}
  270,                                    ! Wind Direction {deg}
  0,                                      ! Sky Clearness
  0,                                      ! Rain Indicator
  0,                                      ! Snow Indicator
  21,                                     ! Day of Month
  7,                                      ! Month
  SummerDesignDay,                        ! Day Type
  0,                                      ! Daylight Saving Time Indicator
  Wetbulb,                                ! Humidity Indicating Type
  ,                                       ! Humidity Indicating Day Schedule Name
  DefaultMultipliers,                     ! Dry-Bulb Temperature Range Modifier Type
  ,                                       ! Dry-Bulb Temperature Range Modifier Schedule Name
  ASHRAETau,                              ! Solar Model Indicator
  ,                                       ! Beam Solar Day Schedule Name
  ,                                       ! Diffuse Solar Day Schedule Name
  0.564,                                  ! ASHRAE Taub {dimensionless}
  1.778;                                  ! ASHRAE Taud {dimensionless}

OS:ComponentData,
  {29e27acc-0338-46da-94db-43d1ebf46c96}, ! Handle
  Component Data 1,                       ! Name
  {01bec5f6-0e6b-48b9-859f-af4dd2c05c7e}, ! UUID
  {fb7d43ca-3c77-49cb-98a4-1691641366a6}, ! Version UUID
  1366307000,                             ! Creation Timestamp
  1366307000,                             ! Version Timestamp
  {c463699e-7a5a-4b04-8374-99d8e1aa8ea9}; ! Name of Object 1

