
OS:Version,
  {dc129988-ce9b-437a-b0cf-2c3d6d59c33d}, ! Handle
  0.9.3;                                  ! Version Identifier

OS:SizingPeriod:DesignDay,
  {c58f6d3c-006b-451c-87a2-c78d196e493b}, ! Handle
  Carlsbad Palomar Ann Htg 99.6% Condns DB, ! Name
  6.1,                                    ! Maximum Dry-Bulb Temperature {C}
  0,                                      ! Daily Dry-Bulb Temperature Range {deltaC}
  6.1,                                    ! Humidity Indicating Conditions at Maximum Dry-Bulb {BasedOnField A3}
  100129,                                 ! Barometric Pressure {Pa}
  1.8,                                    ! Wind Speed {m/s}
  80,                                     ! Wind Direction {deg}
  0,                                      ! Sky Clearness
  0,                                      ! Rain Indicator
  0,                                      ! Snow Indicator
  21,                                     ! Day of Month
  12,                                     ! Month
  WinterDesignDay,                        ! Day Type
  0,                                      ! Daylight Saving Time Indicator
  Wetbulb,                                ! Humidity Indicating Type
  ,                                       ! Humidity Indicating Day Schedule Name
  DefaultMultipliers,                     ! Dry-Bulb Temperature Range Modifier Type
  ,                                       ! Dry-Bulb Temperature Range Modifier Schedule Name
  ASHRAEClearSky;                         ! Solar Model Indicator

OS:ComponentData,
  {a72cd7a2-43fb-4da7-93ac-462aff34abed}, ! Handle
  Component Data 1,                       ! Name
  {e8541a08-606b-4e80-a3e1-7634527882a4}, ! UUID
  {bf672f71-5602-4e1b-bbc4-bb4a46f7d374}, ! Version UUID
  1366306401,                             ! Creation Timestamp
  1366306401,                             ! Version Timestamp
  {c58f6d3c-006b-451c-87a2-c78d196e493b}; ! Name of Object 1

