
OS:Version,
  {ac83dc34-6d61-4aff-8fcb-7ac4530064c4}, ! Handle
  0.9.3;                                  ! Version Identifier

OS:SizingPeriod:DesignDay,
  {035a227b-4690-46fd-9210-c85a219fc296}, ! Handle
  AMARILLO Ann Clg .4% Condns WB=>MDB,    ! Name
  30,                                     ! Maximum Dry-Bulb Temperature {C}
  13.8,                                   ! Daily Dry-Bulb Temperature Range {deltaC}
  21.7,                                   ! Humidity Indicating Conditions at Maximum Dry-Bulb {BasedOnField A3}
  88811,                                  ! Barometric Pressure {Pa}
  6.9,                                    ! Wind Speed {m/s}
  210,                                    ! Wind Direction {deg}
  0,                                      ! Sky Clearness
  0,                                      ! Rain Indicator
  0,                                      ! Snow Indicator
  21,                                     ! Day of Month
  7,                                      ! Month
  SummerDesignDay,                        ! Day Type
  0,                                      ! Daylight Saving Time Indicator
  Wetbulb,                                ! Humidity Indicating Type
  ,                                       ! Humidity Indicating Day Schedule Name
  DefaultMultipliers,                     ! Dry-Bulb Temperature Range Modifier Type
  ,                                       ! Dry-Bulb Temperature Range Modifier Schedule Name
  ASHRAETau,                              ! Solar Model Indicator
  ,                                       ! Beam Solar Day Schedule Name
  ,                                       ! Diffuse Solar Day Schedule Name
  0.414,                                  ! ASHRAE Taub {dimensionless}
  2.136;                                  ! ASHRAE Taud {dimensionless}

OS:ComponentData,
  {9276caa4-917b-4c99-8f48-f636a1fd713e}, ! Handle
  Component Data 1,                       ! Name
  {cac183d5-4185-4ec5-a80b-d944d644c31b}, ! UUID
  {23804208-6694-48ea-837c-fa7cd721f9d4}, ! Version UUID
  1366310566,                             ! Creation Timestamp
  1366310566,                             ! Version Timestamp
  {035a227b-4690-46fd-9210-c85a219fc296}; ! Name of Object 1

