
OS:Version,
  {85d6bebc-9c43-4776-ae2c-a106c548cdff}, ! Handle
  0.9.3;                                  ! Version Identifier

OS:SizingPeriod:DesignDay,
  {5dee2a30-a372-4d8e-9096-7e07e8693816}, ! Handle
  Fort Polk Aaf Ann Htg Wind 99% Condns WS=>MCDB, ! Name
  11.6,                                   ! Maximum Dry-Bulb Temperature {C}
  0,                                      ! Daily Dry-Bulb Temperature Range {deltaC}
  11.6,                                   ! Humidity Indicating Conditions at Maximum Dry-Bulb {BasedOnField A3}
  100106,                                 ! Barometric Pressure {Pa}
  8.1,                                    ! Wind Speed {m/s}
  10,                                     ! Wind Direction {deg}
  0,                                      ! Sky Clearness
  0,                                      ! Rain Indicator
  0,                                      ! Snow Indicator
  21,                                     ! Day of Month
  1,                                      ! Month
  WinterDesignDay,                        ! Day Type
  0,                                      ! Daylight Saving Time Indicator
  Wetbulb,                                ! Humidity Indicating Type
  ,                                       ! Humidity Indicating Day Schedule Name
  DefaultMultipliers,                     ! Dry-Bulb Temperature Range Modifier Type
  ,                                       ! Dry-Bulb Temperature Range Modifier Schedule Name
  ASHRAEClearSky;                         ! Solar Model Indicator

OS:ComponentData,
  {c46fbff0-cb8e-4ce0-aedd-7a8c5ea39506}, ! Handle
  Component Data 1,                       ! Name
  {23fcf1eb-a3d6-4671-bd74-92d680235a1a}, ! UUID
  {5b63d84d-1e3d-4c68-adf3-40ea4ed27a0c}, ! Version UUID
  1366307714,                             ! Creation Timestamp
  1366307714,                             ! Version Timestamp
  {5dee2a30-a372-4d8e-9096-7e07e8693816}; ! Name of Object 1

