
OS:Version,
  {0f6baa59-ea51-4416-95c1-f55cb5452eac}, ! Handle
  0.9.3;                                  ! Version Identifier

OS:SizingPeriod:DesignDay,
  {ff588a18-96f2-4928-a9f3-f45406f29db8}, ! Handle
  Jacksonville Nas Ann Hum_n 99.6% Condns DP=>MCDB, ! Name
  4.1,                                    ! Maximum Dry-Bulb Temperature {C}
  0,                                      ! Daily Dry-Bulb Temperature Range {deltaC}
  -10,                                    ! Humidity Indicating Conditions at Maximum Dry-Bulb {BasedOnField A3}
  101217,                                 ! Barometric Pressure {Pa}
  3.4,                                    ! Wind Speed {m/s}
  260,                                    ! Wind Direction {deg}
  0,                                      ! Sky Clearness
  0,                                      ! Rain Indicator
  0,                                      ! Snow Indicator
  21,                                     ! Day of Month
  1,                                      ! Month
  WinterDesignDay,                        ! Day Type
  0,                                      ! Daylight Saving Time Indicator
  Dewpoint,                               ! Humidity Indicating Type
  ,                                       ! Humidity Indicating Day Schedule Name
  DefaultMultipliers,                     ! Dry-Bulb Temperature Range Modifier Type
  ,                                       ! Dry-Bulb Temperature Range Modifier Schedule Name
  ASHRAEClearSky;                         ! Solar Model Indicator

OS:ComponentData,
  {6d6dab6c-3945-4d65-86cb-2bc8661730b5}, ! Handle
  Component Data 1,                       ! Name
  {711378cd-30c5-43f4-a261-64d5e44562c0}, ! UUID
  {b9bdf8d1-51bc-4beb-80c4-96c811433cd8}, ! Version UUID
  1366306825,                             ! Creation Timestamp
  1366306825,                             ! Version Timestamp
  {ff588a18-96f2-4928-a9f3-f45406f29db8}; ! Name of Object 1

