
OS:Version,
  {9bcf3d21-8473-4459-8154-dccfef4cf7ac}, ! Handle
  0.9.3;                                  ! Version Identifier

OS:SizingPeriod:DesignDay,
  {a5dcf7a6-5b3a-4115-86bb-e8065b17511f}, ! Handle
  CHEYENNE Ann Htg Wind 99% Condns WS=>MCDB, ! Name
  1.1,                                    ! Maximum Dry-Bulb Temperature {C}
  0,                                      ! Daily Dry-Bulb Temperature Range {deltaC}
  1.1,                                    ! Humidity Indicating Conditions at Maximum Dry-Bulb {BasedOnField A3}
  80767,                                  ! Barometric Pressure {Pa}
  16.3,                                   ! Wind Speed {m/s}
  0,                                      ! Wind Direction {deg}
  0,                                      ! Sky Clearness
  0,                                      ! Rain Indicator
  0,                                      ! Snow Indicator
  21,                                     ! Day of Month
  12,                                     ! Month
  WinterDesignDay,                        ! Day Type
  0,                                      ! Daylight Saving Time Indicator
  Wetbulb,                                ! Humidity Indicating Type
  ,                                       ! Humidity Indicating Day Schedule Name
  DefaultMultipliers,                     ! Dry-Bulb Temperature Range Modifier Type
  ,                                       ! Dry-Bulb Temperature Range Modifier Schedule Name
  ASHRAEClearSky;                         ! Solar Model Indicator

OS:ComponentData,
  {d84de6d7-bc11-4d32-af2e-6678cbd160dc}, ! Handle
  Component Data 1,                       ! Name
  {5e39afe5-2f4d-421a-8203-1e6bc6a901b1}, ! UUID
  {7484eaf5-b356-48e7-b78d-553604696d9e}, ! Version UUID
  1366311699,                             ! Creation Timestamp
  1366311699,                             ! Version Timestamp
  {a5dcf7a6-5b3a-4115-86bb-e8065b17511f}; ! Name of Object 1

