
OS:Version,
  {315a8db7-884d-4509-ab29-6b85e1ea901b}, ! Handle
  0.9.3;                                  ! Version Identifier

OS:SizingPeriod:DesignDay,
  {51d3d4ff-a5f0-49bb-9cac-3f2449d76894}, ! Handle
  Kalispell Glacier Pk IntL Ar Ann Htg Wind 99.6% Condns WS=>MCDB, ! Name
  -15.2,                                  ! Maximum Dry-Bulb Temperature {C}
  0,                                      ! Daily Dry-Bulb Temperature Range {deltaC}
  -15.2,                                  ! Humidity Indicating Conditions at Maximum Dry-Bulb {BasedOnField A3}
  90904,                                  ! Barometric Pressure {Pa}
  12.7,                                   ! Wind Speed {m/s}
  30,                                     ! Wind Direction {deg}
  0,                                      ! Sky Clearness
  0,                                      ! Rain Indicator
  0,                                      ! Snow Indicator
  21,                                     ! Day of Month
  12,                                     ! Month
  WinterDesignDay,                        ! Day Type
  0,                                      ! Daylight Saving Time Indicator
  Wetbulb,                                ! Humidity Indicating Type
  ,                                       ! Humidity Indicating Day Schedule Name
  DefaultMultipliers,                     ! Dry-Bulb Temperature Range Modifier Type
  ,                                       ! Dry-Bulb Temperature Range Modifier Schedule Name
  ASHRAEClearSky;                         ! Solar Model Indicator

OS:ComponentData,
  {76b06fbf-0215-4a20-8b7c-f5315b1de7c0}, ! Handle
  Component Data 1,                       ! Name
  {76b51704-b67f-4739-adb9-172991bd4917}, ! UUID
  {aa7c3d9d-065c-4f13-830b-b8f3cf07d86d}, ! Version UUID
  1366308801,                             ! Creation Timestamp
  1366308801,                             ! Version Timestamp
  {51d3d4ff-a5f0-49bb-9cac-3f2449d76894}; ! Name of Object 1

