
OS:Version,
  {094c6368-bce6-44b1-a76f-bfb10bc9f679}, ! Handle
  0.9.3;                                  ! Version Identifier

OS:SizingPeriod:DesignDay,
  {7344fc39-791c-4de1-9a0f-b2eeebd6eed7}, ! Handle
  Brewster Field Arpt Ann Clg 2% Condns Enth=>MDB, ! Name
  30,                                     ! Maximum Dry-Bulb Temperature {C}
  12.5,                                   ! Daily Dry-Bulb Temperature Range {deltaC}
  71500,                                  ! Humidity Indicating Conditions at Maximum Dry-Bulb {BasedOnField A3}
  93149,                                  ! Barometric Pressure {Pa}
  5.5,                                    ! Wind Speed {m/s}
  180,                                    ! Wind Direction {deg}
  0,                                      ! Sky Clearness
  0,                                      ! Rain Indicator
  0,                                      ! Snow Indicator
  21,                                     ! Day of Month
  7,                                      ! Month
  SummerDesignDay,                        ! Day Type
  0,                                      ! Daylight Saving Time Indicator
  Enthalpy,                               ! Humidity Indicating Type
  ,                                       ! Humidity Indicating Day Schedule Name
  DefaultMultipliers,                     ! Dry-Bulb Temperature Range Modifier Type
  ,                                       ! Dry-Bulb Temperature Range Modifier Schedule Name
  ASHRAETau,                              ! Solar Model Indicator
  ,                                       ! Beam Solar Day Schedule Name
  ,                                       ! Diffuse Solar Day Schedule Name
  0.401,                                  ! ASHRAE Taub {dimensionless}
  2.224;                                  ! ASHRAE Taud {dimensionless}

OS:ComponentData,
  {2dd35c73-a7ea-4e76-b5b5-47e9ab381393}, ! Handle
  Component Data 1,                       ! Name
  {77db253b-0ff9-4ae5-8d59-ecb6d8551e74}, ! UUID
  {201f7f0b-1f59-4777-96dc-c48a33e79153}, ! Version UUID
  1366309131,                             ! Creation Timestamp
  1366309131,                             ! Version Timestamp
  {7344fc39-791c-4de1-9a0f-b2eeebd6eed7}; ! Name of Object 1

