
OS:Version,
  {7b0d40b9-bae6-4a71-9db6-82a525dab286}, ! Handle
  0.9.3;                                  ! Version Identifier

OS:SizingPeriod:DesignDay,
  {2273865f-912f-4882-b0b8-99e82e3d73cf}, ! Handle
  Knoxville Ann Htg 99.6% Condns DB,      ! Name
  -9.4,                                   ! Maximum Dry-Bulb Temperature {C}
  0,                                      ! Daily Dry-Bulb Temperature Range {deltaC}
  -9.4,                                   ! Humidity Indicating Conditions at Maximum Dry-Bulb {BasedOnField A3}
  97784,                                  ! Barometric Pressure {Pa}
  2.8,                                    ! Wind Speed {m/s}
  20,                                     ! Wind Direction {deg}
  0,                                      ! Sky Clearness
  0,                                      ! Rain Indicator
  0,                                      ! Snow Indicator
  21,                                     ! Day of Month
  1,                                      ! Month
  WinterDesignDay,                        ! Day Type
  0,                                      ! Daylight Saving Time Indicator
  Wetbulb,                                ! Humidity Indicating Type
  ,                                       ! Humidity Indicating Day Schedule Name
  DefaultMultipliers,                     ! Dry-Bulb Temperature Range Modifier Type
  ,                                       ! Dry-Bulb Temperature Range Modifier Schedule Name
  ASHRAEClearSky;                         ! Solar Model Indicator

OS:ComponentData,
  {406cb978-823c-4794-895a-c8904a5e1a0d}, ! Handle
  Component Data 1,                       ! Name
  {5dd1bce2-ffb5-4615-801a-971fe7dfbb73}, ! UUID
  {24dee9eb-1c65-4122-b8c0-610c58d927ca}, ! Version UUID
  1366310508,                             ! Creation Timestamp
  1366310508,                             ! Version Timestamp
  {2273865f-912f-4882-b0b8-99e82e3d73cf}; ! Name of Object 1

