
OS:Version,
  {43c8412b-c53a-4390-9cc5-acbd54d42f83}, ! Handle
  0.9.3;                                  ! Version Identifier

OS:SizingPeriod:DesignDay,
  {6a3ee9c8-729f-47eb-8a89-d3ee313c2274}, ! Handle
  Fort Wayne Intl Ap Ann Hum_n 99.6% Condns DP=>MCDB, ! Name
  -18.9,                                  ! Maximum Dry-Bulb Temperature {C}
  0,                                      ! Daily Dry-Bulb Temperature Range {deltaC}
  -23.1,                                  ! Humidity Indicating Conditions at Maximum Dry-Bulb {BasedOnField A3}
  98463,                                  ! Barometric Pressure {Pa}
  4.6,                                    ! Wind Speed {m/s}
  260,                                    ! Wind Direction {deg}
  0,                                      ! Sky Clearness
  0,                                      ! Rain Indicator
  0,                                      ! Snow Indicator
  21,                                     ! Day of Month
  1,                                      ! Month
  WinterDesignDay,                        ! Day Type
  0,                                      ! Daylight Saving Time Indicator
  Dewpoint,                               ! Humidity Indicating Type
  ,                                       ! Humidity Indicating Day Schedule Name
  DefaultMultipliers,                     ! Dry-Bulb Temperature Range Modifier Type
  ,                                       ! Dry-Bulb Temperature Range Modifier Schedule Name
  ASHRAEClearSky;                         ! Solar Model Indicator

OS:ComponentData,
  {26f8f755-384f-4fe1-a659-9e67593fe61e}, ! Handle
  Component Data 1,                       ! Name
  {cdf82724-7ac5-45e4-92d8-ea20bbfa4076}, ! UUID
  {5722281e-4bfc-42e2-9e90-63d5b1e3587e}, ! Version UUID
  1366307446,                             ! Creation Timestamp
  1366307446,                             ! Version Timestamp
  {6a3ee9c8-729f-47eb-8a89-d3ee313c2274}; ! Name of Object 1

