
OS:Version,
  {01b5338b-3c78-40ae-b319-77984bd740cc}, ! Handle
  0.9.3;                                  ! Version Identifier

OS:SizingPeriod:DesignDay,
  {5d18fab7-78a8-40ea-b684-5d64c896c255}, ! Handle
  Dodge City Regional Ap Ann Clg 2% Condns DB=>MWB, ! Name
  34.6,                                   ! Maximum Dry-Bulb Temperature {C}
  13.9,                                   ! Daily Dry-Bulb Temperature Range {deltaC}
  21,                                     ! Humidity Indicating Conditions at Maximum Dry-Bulb {BasedOnField A3}
  92243,                                  ! Barometric Pressure {Pa}
  7.4,                                    ! Wind Speed {m/s}
  180,                                    ! Wind Direction {deg}
  0,                                      ! Sky Clearness
  0,                                      ! Rain Indicator
  0,                                      ! Snow Indicator
  21,                                     ! Day of Month
  7,                                      ! Month
  SummerDesignDay,                        ! Day Type
  0,                                      ! Daylight Saving Time Indicator
  Wetbulb,                                ! Humidity Indicating Type
  ,                                       ! Humidity Indicating Day Schedule Name
  DefaultMultipliers,                     ! Dry-Bulb Temperature Range Modifier Type
  ,                                       ! Dry-Bulb Temperature Range Modifier Schedule Name
  ASHRAETau,                              ! Solar Model Indicator
  ,                                       ! Beam Solar Day Schedule Name
  ,                                       ! Diffuse Solar Day Schedule Name
  0.419,                                  ! ASHRAE Taub {dimensionless}
  2.142;                                  ! ASHRAE Taud {dimensionless}

