
OS:Version,
  {24cf5e70-fde1-4e5f-b82e-988f759388c4}, ! Handle
  0.9.3;                                  ! Version Identifier

OS:SizingPeriod:DesignDay,
  {c40a7bba-fa96-47e5-bb15-59de3cfe5b13}, ! Handle
  Dodge City Regional Ap Ann Clg 2% Condns DB=>MWB, ! Name
  34.6,                                   ! Maximum Dry-Bulb Temperature {C}
  13.9,                                   ! Daily Dry-Bulb Temperature Range {deltaC}
  21,                                     ! Humidity Indicating Conditions at Maximum Dry-Bulb {BasedOnField A3}
  92243,                                  ! Barometric Pressure {Pa}
  7.4,                                    ! Wind Speed {m/s}
  180,                                    ! Wind Direction {deg}
  0,                                      ! Sky Clearness
  0,                                      ! Rain Indicator
  0,                                      ! Snow Indicator
  21,                                     ! Day of Month
  7,                                      ! Month
  SummerDesignDay,                        ! Day Type
  0,                                      ! Daylight Saving Time Indicator
  Wetbulb,                                ! Humidity Indicating Type
  ,                                       ! Humidity Indicating Day Schedule Name
  DefaultMultipliers,                     ! Dry-Bulb Temperature Range Modifier Type
  ,                                       ! Dry-Bulb Temperature Range Modifier Schedule Name
  ASHRAETau,                              ! Solar Model Indicator
  ,                                       ! Beam Solar Day Schedule Name
  ,                                       ! Diffuse Solar Day Schedule Name
  0.419,                                  ! ASHRAE Taub {dimensionless}
  2.142;                                  ! ASHRAE Taud {dimensionless}

OS:ComponentData,
  {405ae4d5-3f9c-49da-901b-bb2c782064a6}, ! Handle
  Component Data 1,                       ! Name
  {d6179dd0-9575-4d75-9f52-f141de9c51fc}, ! UUID
  {dc4a9cfe-0e5b-4091-984e-ad3d433e7780}, ! Version UUID
  1366307517,                             ! Creation Timestamp
  1366307517,                             ! Version Timestamp
  {c40a7bba-fa96-47e5-bb15-59de3cfe5b13}; ! Name of Object 1

