
OS:Version,
  {8a8afeef-7ae9-4fa9-a7d2-cc2e95f2707a}, ! Handle
  0.9.3;                                  ! Version Identifier

OS:SizingPeriod:DesignDay,
  {5ea71507-a1a7-4720-9919-253acfac3cdf}, ! Handle
  Cedar Rapids Municipal Ap Ann Clg 1% Condns WB=>MDB, ! Name
  29.8,                                   ! Maximum Dry-Bulb Temperature {C}
  10.9,                                   ! Daily Dry-Bulb Temperature Range {deltaC}
  25,                                     ! Humidity Indicating Conditions at Maximum Dry-Bulb {BasedOnField A3}
  98287,                                  ! Barometric Pressure {Pa}
  4.8,                                    ! Wind Speed {m/s}
  180,                                    ! Wind Direction {deg}
  0,                                      ! Sky Clearness
  0,                                      ! Rain Indicator
  0,                                      ! Snow Indicator
  21,                                     ! Day of Month
  7,                                      ! Month
  SummerDesignDay,                        ! Day Type
  0,                                      ! Daylight Saving Time Indicator
  Wetbulb,                                ! Humidity Indicating Type
  ,                                       ! Humidity Indicating Day Schedule Name
  DefaultMultipliers,                     ! Dry-Bulb Temperature Range Modifier Type
  ,                                       ! Dry-Bulb Temperature Range Modifier Schedule Name
  ASHRAETau,                              ! Solar Model Indicator
  ,                                       ! Beam Solar Day Schedule Name
  ,                                       ! Diffuse Solar Day Schedule Name
  0.439,                                  ! ASHRAE Taub {dimensionless}
  2.102;                                  ! ASHRAE Taud {dimensionless}

OS:ComponentData,
  {b778b137-c6be-4f48-8d59-44ffcbb7a0a4}, ! Handle
  Component Data 1,                       ! Name
  {ad6b3486-bf9e-4aed-b99b-0e1fc10d6ff7}, ! UUID
  {94b9f58f-5292-477f-9686-8b50bab5eea6}, ! Version UUID
  1366307149,                             ! Creation Timestamp
  1366307149,                             ! Version Timestamp
  {5ea71507-a1a7-4720-9919-253acfac3cdf}; ! Name of Object 1

