
OS:Version,
  {c0c935be-8d72-46f8-91d0-81f1fa23cc18}, ! Handle
  0.9.3;                                  ! Version Identifier

OS:SizingPeriod:DesignDay,
  {4c57288f-eecd-498b-ab4e-992ae895b05e}, ! Handle
  Estherville Muni Ann Clg 1% Condns WB=>MDB, ! Name
  28.8,                                   ! Maximum Dry-Bulb Temperature {C}
  11,                                     ! Daily Dry-Bulb Temperature Range {deltaC}
  24.5,                                   ! Humidity Indicating Conditions at Maximum Dry-Bulb {BasedOnField A3}
  96600,                                  ! Barometric Pressure {Pa}
  7,                                      ! Wind Speed {m/s}
  180,                                    ! Wind Direction {deg}
  0,                                      ! Sky Clearness
  0,                                      ! Rain Indicator
  0,                                      ! Snow Indicator
  21,                                     ! Day of Month
  7,                                      ! Month
  SummerDesignDay,                        ! Day Type
  0,                                      ! Daylight Saving Time Indicator
  Wetbulb,                                ! Humidity Indicating Type
  ,                                       ! Humidity Indicating Day Schedule Name
  DefaultMultipliers,                     ! Dry-Bulb Temperature Range Modifier Type
  ,                                       ! Dry-Bulb Temperature Range Modifier Schedule Name
  ASHRAETau,                              ! Solar Model Indicator
  ,                                       ! Beam Solar Day Schedule Name
  ,                                       ! Diffuse Solar Day Schedule Name
  0.401,                                  ! ASHRAE Taub {dimensionless}
  2.243;                                  ! ASHRAE Taud {dimensionless}

OS:ComponentData,
  {70290c3f-8c69-4434-be9d-3fbc8e9d9041}, ! Handle
  Component Data 1,                       ! Name
  {2d4ad692-9829-4a13-ab88-016f476e4d5b}, ! UUID
  {af74d175-80e8-41f5-a393-10e3283dc5a2}, ! Version UUID
  1366307189,                             ! Creation Timestamp
  1366307189,                             ! Version Timestamp
  {4c57288f-eecd-498b-ab4e-992ae895b05e}; ! Name of Object 1

