
OS:Version,
  {edcd5036-a856-40e1-a796-38339b277af0}, ! Handle
  0.9.3;                                  ! Version Identifier

OS:SizingPeriod:DesignDay,
  {dae5f731-3026-4b42-bc14-9feefd7b013f}, ! Handle
  Albany Dougherty County Ap Ann Clg 2% Condns WB=>MDB, ! Name
  31.1,                                   ! Maximum Dry-Bulb Temperature {C}
  10.7,                                   ! Daily Dry-Bulb Temperature Range {deltaC}
  25.5,                                   ! Humidity Indicating Conditions at Maximum Dry-Bulb {BasedOnField A3}
  100630,                                 ! Barometric Pressure {Pa}
  3.6,                                    ! Wind Speed {m/s}
  240,                                    ! Wind Direction {deg}
  0,                                      ! Sky Clearness
  0,                                      ! Rain Indicator
  0,                                      ! Snow Indicator
  21,                                     ! Day of Month
  7,                                      ! Month
  SummerDesignDay,                        ! Day Type
  0,                                      ! Daylight Saving Time Indicator
  Wetbulb,                                ! Humidity Indicating Type
  ,                                       ! Humidity Indicating Day Schedule Name
  DefaultMultipliers,                     ! Dry-Bulb Temperature Range Modifier Type
  ,                                       ! Dry-Bulb Temperature Range Modifier Schedule Name
  ASHRAETau,                              ! Solar Model Indicator
  ,                                       ! Beam Solar Day Schedule Name
  ,                                       ! Diffuse Solar Day Schedule Name
  0.547,                                  ! ASHRAE Taub {dimensionless}
  1.824;                                  ! ASHRAE Taud {dimensionless}

OS:ComponentData,
  {f3ce10dc-6df2-47be-9d48-73f9cbbdbeb8}, ! Handle
  Component Data 1,                       ! Name
  {b7eed0a7-573c-402f-87cd-e2c46cb0413f}, ! UUID
  {395670bb-eb5b-43c1-b209-24c825e63467}, ! Version UUID
  1366306962,                             ! Creation Timestamp
  1366306962,                             ! Version Timestamp
  {dae5f731-3026-4b42-bc14-9feefd7b013f}; ! Name of Object 1

