
OS:Version,
  {255e0ace-b033-4bd9-b1e0-7f6d07867578}, ! Handle
  0.9.3;                                  ! Version Identifier

OS:SizingPeriod:DesignDay,
  {173a4f8b-635e-4a92-b928-5473ac7faff7}, ! Handle
  Anchorage Merrill Field Ann Hum_n 99.6% Condns DP=>MCDB, ! Name
  -22.3,                                  ! Maximum Dry-Bulb Temperature {C}
  0,                                      ! Daily Dry-Bulb Temperature Range {deltaC}
  -27.5,                                  ! Humidity Indicating Conditions at Maximum Dry-Bulb {BasedOnField A3}
  100821,                                 ! Barometric Pressure {Pa}
  0.7,                                    ! Wind Speed {m/s}
  100,                                    ! Wind Direction {deg}
  0,                                      ! Sky Clearness
  0,                                      ! Rain Indicator
  0,                                      ! Snow Indicator
  21,                                     ! Day of Month
  1,                                      ! Month
  WinterDesignDay,                        ! Day Type
  0,                                      ! Daylight Saving Time Indicator
  Dewpoint,                               ! Humidity Indicating Type
  ,                                       ! Humidity Indicating Day Schedule Name
  DefaultMultipliers,                     ! Dry-Bulb Temperature Range Modifier Type
  ,                                       ! Dry-Bulb Temperature Range Modifier Schedule Name
  ASHRAEClearSky;                         ! Solar Model Indicator

OS:ComponentData,
  {18690b14-36a1-44ec-a103-da5fd1ba9d01}, ! Handle
  Component Data 1,                       ! Name
  {cf02a595-117c-403a-9d80-2366bef1b8ca}, ! UUID
  {3ab3ddd3-9c9b-4ef5-95c3-b2b84a78699c}, ! Version UUID
  1366304699,                             ! Creation Timestamp
  1366304699,                             ! Version Timestamp
  {173a4f8b-635e-4a92-b928-5473ac7faff7}; ! Name of Object 1

