
OS:Version,
  {9023a0ab-7c97-41db-bb3b-c6fa098a0fa1}, ! Handle
  0.9.3;                                  ! Version Identifier

OS:SizingPeriod:DesignDay,
  {3b2cacc4-bced-4128-b756-4d57764eb0ec}, ! Handle
  GOODLAND Ann Clg 1% Condns DP=>MDB,     ! Name
  23.6,                                   ! Maximum Dry-Bulb Temperature {C}
  15,                                     ! Daily Dry-Bulb Temperature Range {deltaC}
  18.6,                                   ! Humidity Indicating Conditions at Maximum Dry-Bulb {BasedOnField A3}
  88531,                                  ! Barometric Pressure {Pa}
  6,                                      ! Wind Speed {m/s}
  160,                                    ! Wind Direction {deg}
  0,                                      ! Sky Clearness
  0,                                      ! Rain Indicator
  0,                                      ! Snow Indicator
  21,                                     ! Day of Month
  7,                                      ! Month
  SummerDesignDay,                        ! Day Type
  0,                                      ! Daylight Saving Time Indicator
  Dewpoint,                               ! Humidity Indicating Type
  ,                                       ! Humidity Indicating Day Schedule Name
  DefaultMultipliers,                     ! Dry-Bulb Temperature Range Modifier Type
  ,                                       ! Dry-Bulb Temperature Range Modifier Schedule Name
  ASHRAETau,                              ! Solar Model Indicator
  ,                                       ! Beam Solar Day Schedule Name
  ,                                       ! Diffuse Solar Day Schedule Name
  0.421,                                  ! ASHRAE Taub {dimensionless}
  2.065;                                  ! ASHRAE Taud {dimensionless}

OS:ComponentData,
  {44ac4704-0bba-4dd6-986c-e70786a06c96}, ! Handle
  Component Data 1,                       ! Name
  {0da31e59-6fec-40a1-86bd-5f06b5c640ce}, ! UUID
  {d78144ca-2a70-435b-a822-e8c9a80f013a}, ! Version UUID
  1366307538,                             ! Creation Timestamp
  1366307538,                             ! Version Timestamp
  {3b2cacc4-bced-4128-b756-4d57764eb0ec}; ! Name of Object 1

