
OS:Version,
  {32ba25cc-e2a2-4351-ba3d-01a3cb37885b}, ! Handle
  0.9.3;                                  ! Version Identifier

OS:SizingPeriod:DesignDay,
  {329e1f26-d85c-45f3-834f-4569e582ada6}, ! Handle
  Fort Worth/Meacham Fie Ann Clg 1% Condns WB=>MDB, ! Name
  30.6,                                   ! Maximum Dry-Bulb Temperature {C}
  12,                                     ! Daily Dry-Bulb Temperature Range {deltaC}
  23.8,                                   ! Humidity Indicating Conditions at Maximum Dry-Bulb {BasedOnField A3}
  98757,                                  ! Barometric Pressure {Pa}
  3.9,                                    ! Wind Speed {m/s}
  170,                                    ! Wind Direction {deg}
  0,                                      ! Sky Clearness
  0,                                      ! Rain Indicator
  0,                                      ! Snow Indicator
  21,                                     ! Day of Month
  7,                                      ! Month
  SummerDesignDay,                        ! Day Type
  0,                                      ! Daylight Saving Time Indicator
  Wetbulb,                                ! Humidity Indicating Type
  ,                                       ! Humidity Indicating Day Schedule Name
  DefaultMultipliers,                     ! Dry-Bulb Temperature Range Modifier Type
  ,                                       ! Dry-Bulb Temperature Range Modifier Schedule Name
  ASHRAETau,                              ! Solar Model Indicator
  ,                                       ! Beam Solar Day Schedule Name
  ,                                       ! Diffuse Solar Day Schedule Name
  0.433,                                  ! ASHRAE Taub {dimensionless}
  2.179;                                  ! ASHRAE Taud {dimensionless}

OS:ComponentData,
  {a906bbe4-6006-4bce-a598-3707a2deb037}, ! Handle
  Component Data 1,                       ! Name
  {70b19a63-65b5-4b36-bcfb-6f36aadbe891}, ! UUID
  {13732456-0dc0-4557-8283-dce2eb3abe81}, ! Version UUID
  1366310706,                             ! Creation Timestamp
  1366310706,                             ! Version Timestamp
  {329e1f26-d85c-45f3-834f-4569e582ada6}; ! Name of Object 1

