
OS:Version,
  {c9c93cd7-1037-4dd8-81ca-16576c8e1960}, ! Handle
  0.9.3;                                  ! Version Identifier

OS:SizingPeriod:DesignDay,
  {a8b0bbb4-bef1-4483-8107-03a6056ffc27}, ! Handle
  LOS_ANGELES Ann Clg .4% Condns Enth=>MDB, ! Name
  25.7,                                   ! Maximum Dry-Bulb Temperature {C}
  6,                                      ! Daily Dry-Bulb Temperature Range {deltaC}
  61900,                                  ! Humidity Indicating Conditions at Maximum Dry-Bulb {BasedOnField A3}
  100941,                                 ! Barometric Pressure {Pa}
  4.1,                                    ! Wind Speed {m/s}
  250,                                    ! Wind Direction {deg}
  0,                                      ! Sky Clearness
  0,                                      ! Rain Indicator
  0,                                      ! Snow Indicator
  21,                                     ! Day of Month
  8,                                      ! Month
  SummerDesignDay,                        ! Day Type
  0,                                      ! Daylight Saving Time Indicator
  Enthalpy,                               ! Humidity Indicating Type
  ,                                       ! Humidity Indicating Day Schedule Name
  DefaultMultipliers,                     ! Dry-Bulb Temperature Range Modifier Type
  ,                                       ! Dry-Bulb Temperature Range Modifier Schedule Name
  ASHRAETau,                              ! Solar Model Indicator
  ,                                       ! Beam Solar Day Schedule Name
  ,                                       ! Diffuse Solar Day Schedule Name
  0.44,                                   ! ASHRAE Taub {dimensionless}
  2.108;                                  ! ASHRAE Taud {dimensionless}

OS:ComponentData,
  {08fac632-135a-4d8f-924d-578a9ed067f4}, ! Handle
  Component Data 1,                       ! Name
  {505faf40-5fc0-4e3c-9bc4-00afd8a2f88a}, ! UUID
  {3415d600-cb36-43c5-80d3-411f2de3fa1f}, ! Version UUID
  1366306479,                             ! Creation Timestamp
  1366306479,                             ! Version Timestamp
  {a8b0bbb4-bef1-4483-8107-03a6056ffc27}; ! Name of Object 1

