
OS:Version,
  {f548500c-e1f0-4e75-9336-31ddb77d11e3}, ! Handle
  0.9.3;                                  ! Version Identifier

OS:SizingPeriod:DesignDay,
  {f8de53f0-f775-4132-bcf6-5a51e40c6b99}, ! Handle
  Belleville Scott Afb Ann Clg .4% Condns DB=>MWB, ! Name
  35,                                     ! Maximum Dry-Bulb Temperature {C}
  11,                                     ! Daily Dry-Bulb Temperature Range {deltaC}
  25.2,                                   ! Humidity Indicating Conditions at Maximum Dry-Bulb {BasedOnField A3}
  99714,                                  ! Barometric Pressure {Pa}
  3.4,                                    ! Wind Speed {m/s}
  190,                                    ! Wind Direction {deg}
  0,                                      ! Sky Clearness
  0,                                      ! Rain Indicator
  0,                                      ! Snow Indicator
  21,                                     ! Day of Month
  7,                                      ! Month
  SummerDesignDay,                        ! Day Type
  0,                                      ! Daylight Saving Time Indicator
  Wetbulb,                                ! Humidity Indicating Type
  ,                                       ! Humidity Indicating Day Schedule Name
  DefaultMultipliers,                     ! Dry-Bulb Temperature Range Modifier Type
  ,                                       ! Dry-Bulb Temperature Range Modifier Schedule Name
  ASHRAETau,                              ! Solar Model Indicator
  ,                                       ! Beam Solar Day Schedule Name
  ,                                       ! Diffuse Solar Day Schedule Name
  0.48,                                   ! ASHRAE Taub {dimensionless}
  1.976;                                  ! ASHRAE Taud {dimensionless}

OS:ComponentData,
  {b5aac34a-5997-4242-8d68-8e2de9320858}, ! Handle
  Component Data 1,                       ! Name
  {0224cd5e-8b00-495a-9ce7-f239cabd0e37}, ! UUID
  {7c1cb637-9ed9-458a-b5e0-bec79905205a}, ! Version UUID
  1366307323,                             ! Creation Timestamp
  1366307323,                             ! Version Timestamp
  {f8de53f0-f775-4132-bcf6-5a51e40c6b99}; ! Name of Object 1

