
OS:Version,
  {92e1cd64-88a6-480d-90fc-79d9c2c19366}, ! Handle
  0.9.3;                                  ! Version Identifier

OS:SizingPeriod:DesignDay,
  {906b6774-1212-4cb0-942f-78cd20878963}, ! Handle
  Ewa/Barbers Point NAS Ann Htg 99% Condns DB, ! Name
  16.5,                                   ! Maximum Dry-Bulb Temperature {C}
  0,                                      ! Daily Dry-Bulb Temperature Range {deltaC}
  16.5,                                   ! Humidity Indicating Conditions at Maximum Dry-Bulb {BasedOnField A3}
  101145,                                 ! Barometric Pressure {Pa}
  2.1,                                    ! Wind Speed {m/s}
  40,                                     ! Wind Direction {deg}
  0,                                      ! Sky Clearness
  0,                                      ! Rain Indicator
  0,                                      ! Snow Indicator
  21,                                     ! Day of Month
  1,                                      ! Month
  WinterDesignDay,                        ! Day Type
  0,                                      ! Daylight Saving Time Indicator
  Wetbulb,                                ! Humidity Indicating Type
  ,                                       ! Humidity Indicating Day Schedule Name
  DefaultMultipliers,                     ! Dry-Bulb Temperature Range Modifier Type
  ,                                       ! Dry-Bulb Temperature Range Modifier Schedule Name
  ASHRAEClearSky;                         ! Solar Model Indicator

OS:ComponentData,
  {40b27190-fff8-4c42-a4f9-4b1c6cc21fbd}, ! Handle
  Component Data 1,                       ! Name
  {cd8dfac4-bd93-4341-8748-0ac16644ecc3}, ! UUID
  {83873dd1-eb02-4d9a-9c9f-c4ff927b2370}, ! Version UUID
  1366307069,                             ! Creation Timestamp
  1366307069,                             ! Version Timestamp
  {906b6774-1212-4cb0-942f-78cd20878963}; ! Name of Object 1

