
OS:Version,
  {384d1e84-55e5-4279-ad1e-68074fdebd95}, ! Handle
  0.9.3;                                  ! Version Identifier

OS:SizingPeriod:DesignDay,
  {c1907e80-7192-4343-93de-990cd4caa529}, ! Handle
  LYNCHBURG Ann Clg 1% Condns DB=>MWB,    ! Name
  32.1,                                   ! Maximum Dry-Bulb Temperature {C}
  10.7,                                   ! Daily Dry-Bulb Temperature Range {deltaC}
  22.9,                                   ! Humidity Indicating Conditions at Maximum Dry-Bulb {BasedOnField A3}
  98018,                                  ! Barometric Pressure {Pa}
  3.3,                                    ! Wind Speed {m/s}
  240,                                    ! Wind Direction {deg}
  0,                                      ! Sky Clearness
  0,                                      ! Rain Indicator
  0,                                      ! Snow Indicator
  21,                                     ! Day of Month
  7,                                      ! Month
  SummerDesignDay,                        ! Day Type
  0,                                      ! Daylight Saving Time Indicator
  Wetbulb,                                ! Humidity Indicating Type
  ,                                       ! Humidity Indicating Day Schedule Name
  DefaultMultipliers,                     ! Dry-Bulb Temperature Range Modifier Type
  ,                                       ! Dry-Bulb Temperature Range Modifier Schedule Name
  ASHRAETau,                              ! Solar Model Indicator
  ,                                       ! Beam Solar Day Schedule Name
  ,                                       ! Diffuse Solar Day Schedule Name
  0.531,                                  ! ASHRAE Taub {dimensionless}
  1.818;                                  ! ASHRAE Taud {dimensionless}

OS:ComponentData,
  {fdd008d6-b01b-46c4-9760-9d7fe357c8c7}, ! Handle
  Component Data 1,                       ! Name
  {9d4dac97-1fd8-40c2-b600-0a3e0005d211}, ! UUID
  {33ac43a6-4a1d-49b2-bf10-3ddc67a85fe4}, ! Version UUID
  1366311083,                             ! Creation Timestamp
  1366311083,                             ! Version Timestamp
  {c1907e80-7192-4343-93de-990cd4caa529}; ! Name of Object 1

