
OS:Version,
  {162e3ba8-165a-449c-813a-04c0a4f69c9f}, ! Handle
  0.9.3;                                  ! Version Identifier

OS:SizingPeriod:DesignDay,
  {e21e9b1e-373c-4dd9-b60f-65c0eb45b3e2}, ! Handle
  Fort Bragg Simmons Aaf Ann Htg 99% Condns DB, ! Name
  -3.3,                                   ! Maximum Dry-Bulb Temperature {C}
  0,                                      ! Daily Dry-Bulb Temperature Range {deltaC}
  -3.3,                                   ! Humidity Indicating Conditions at Maximum Dry-Bulb {BasedOnField A3}
  100213,                                 ! Barometric Pressure {Pa}
  2,                                      ! Wind Speed {m/s}
  0,                                      ! Wind Direction {deg}
  0,                                      ! Sky Clearness
  0,                                      ! Rain Indicator
  0,                                      ! Snow Indicator
  21,                                     ! Day of Month
  1,                                      ! Month
  WinterDesignDay,                        ! Day Type
  0,                                      ! Daylight Saving Time Indicator
  Wetbulb,                                ! Humidity Indicating Type
  ,                                       ! Humidity Indicating Day Schedule Name
  DefaultMultipliers,                     ! Dry-Bulb Temperature Range Modifier Type
  ,                                       ! Dry-Bulb Temperature Range Modifier Schedule Name
  ASHRAEClearSky;                         ! Solar Model Indicator

OS:ComponentData,
  {1c4fd762-96b2-4559-bd17-8266a8db609b}, ! Handle
  Component Data 1,                       ! Name
  {7215004a-fa5c-428d-9522-6730f57fd7d2}, ! UUID
  {c4122f39-647c-4c94-a871-8c8c0bfbac6a}, ! Version UUID
  1366308919,                             ! Creation Timestamp
  1366308919,                             ! Version Timestamp
  {e21e9b1e-373c-4dd9-b60f-65c0eb45b3e2}; ! Name of Object 1

