
OS:Version,
  {19c8de55-7da1-4bb0-be6b-1597e9fb991e}, ! Handle
  0.9.3;                                  ! Version Identifier

OS:SizingPeriod:DesignDay,
  {4e1ed818-ca2d-4263-a848-7e1042f10061}, ! Handle
  International Falls Ann Clg .4% Condns DP=>MDB, ! Name
  25.7,                                   ! Maximum Dry-Bulb Temperature {C}
  12.4,                                   ! Daily Dry-Bulb Temperature Range {deltaC}
  21.1,                                   ! Humidity Indicating Conditions at Maximum Dry-Bulb {BasedOnField A3}
  97063,                                  ! Barometric Pressure {Pa}
  4.7,                                    ! Wind Speed {m/s}
  200,                                    ! Wind Direction {deg}
  0,                                      ! Sky Clearness
  0,                                      ! Rain Indicator
  0,                                      ! Snow Indicator
  21,                                     ! Day of Month
  7,                                      ! Month
  SummerDesignDay,                        ! Day Type
  0,                                      ! Daylight Saving Time Indicator
  Dewpoint,                               ! Humidity Indicating Type
  ,                                       ! Humidity Indicating Day Schedule Name
  DefaultMultipliers,                     ! Dry-Bulb Temperature Range Modifier Type
  ,                                       ! Dry-Bulb Temperature Range Modifier Schedule Name
  ASHRAETau,                              ! Solar Model Indicator
  ,                                       ! Beam Solar Day Schedule Name
  ,                                       ! Diffuse Solar Day Schedule Name
  0.405,                                  ! ASHRAE Taub {dimensionless}
  2.2;                                    ! ASHRAE Taud {dimensionless}

OS:ComponentData,
  {774a0e2d-bccd-49d3-b869-7ba5d3a830d1}, ! Handle
  Component Data 1,                       ! Name
  {34e55ccc-9d3d-43bd-9be5-d9f630c2847d}, ! UUID
  {2ea0dd07-ccc3-4f67-a8ec-10e7f8bf24db}, ! Version UUID
  1366308272,                             ! Creation Timestamp
  1366308272,                             ! Version Timestamp
  {4e1ed818-ca2d-4263-a848-7e1042f10061}; ! Name of Object 1

