
OS:Version,
  {bce473a4-f3cf-4589-8cb4-e0a2a3461ba9}, ! Handle
  0.9.3;                                  ! Version Identifier

OS:SizingPeriod:DesignDay,
  {6d3f7d42-602e-414d-a2a6-9f54ac718267}, ! Handle
  Kaneohe Bay Mcas Ann Clg .4% Condns DB=>MWB, ! Name
  29.6,                                   ! Maximum Dry-Bulb Temperature {C}
  4,                                      ! Daily Dry-Bulb Temperature Range {deltaC}
  23.7,                                   ! Humidity Indicating Conditions at Maximum Dry-Bulb {BasedOnField A3}
  101289,                                 ! Barometric Pressure {Pa}
  4.4,                                    ! Wind Speed {m/s}
  70,                                     ! Wind Direction {deg}
  0,                                      ! Sky Clearness
  0,                                      ! Rain Indicator
  0,                                      ! Snow Indicator
  21,                                     ! Day of Month
  9,                                      ! Month
  SummerDesignDay,                        ! Day Type
  0,                                      ! Daylight Saving Time Indicator
  Wetbulb,                                ! Humidity Indicating Type
  ,                                       ! Humidity Indicating Day Schedule Name
  DefaultMultipliers,                     ! Dry-Bulb Temperature Range Modifier Type
  ,                                       ! Dry-Bulb Temperature Range Modifier Schedule Name
  ASHRAETau,                              ! Solar Model Indicator
  ,                                       ! Beam Solar Day Schedule Name
  ,                                       ! Diffuse Solar Day Schedule Name
  0.371,                                  ! ASHRAE Taub {dimensionless}
  2.619;                                  ! ASHRAE Taud {dimensionless}

OS:ComponentData,
  {1ffc3880-9467-414d-b274-fda3dd1217b7}, ! Handle
  Component Data 1,                       ! Name
  {e47c050a-089f-4df3-8d55-5eb188807cdd}, ! UUID
  {ca3c8662-35d6-48e3-80db-92f5fd673a4c}, ! Version UUID
  1366307103,                             ! Creation Timestamp
  1366307103,                             ! Version Timestamp
  {6d3f7d42-602e-414d-a2a6-9f54ac718267}; ! Name of Object 1

