
OS:Version,
  {a33e142f-e0ce-4d94-bc4d-91077f5ac130}, ! Handle
  0.9.3;                                  ! Version Identifier

OS:SizingPeriod:DesignDay,
  {1aaf0918-8ae2-4459-84e7-bdbce05766b1}, ! Handle
  Atlantic City Intl Ap Ann Clg .4% Condns WB=>MDB, ! Name
  30.8,                                   ! Maximum Dry-Bulb Temperature {C}
  10.2,                                   ! Daily Dry-Bulb Temperature Range {deltaC}
  25.5,                                   ! Humidity Indicating Conditions at Maximum Dry-Bulb {BasedOnField A3}
  101109,                                 ! Barometric Pressure {Pa}
  5,                                      ! Wind Speed {m/s}
  230,                                    ! Wind Direction {deg}
  0,                                      ! Sky Clearness
  0,                                      ! Rain Indicator
  0,                                      ! Snow Indicator
  21,                                     ! Day of Month
  7,                                      ! Month
  SummerDesignDay,                        ! Day Type
  0,                                      ! Daylight Saving Time Indicator
  Wetbulb,                                ! Humidity Indicating Type
  ,                                       ! Humidity Indicating Day Schedule Name
  DefaultMultipliers,                     ! Dry-Bulb Temperature Range Modifier Type
  ,                                       ! Dry-Bulb Temperature Range Modifier Schedule Name
  ASHRAETau,                              ! Solar Model Indicator
  ,                                       ! Beam Solar Day Schedule Name
  ,                                       ! Diffuse Solar Day Schedule Name
  0.557,                                  ! ASHRAE Taub {dimensionless}
  1.774;                                  ! ASHRAE Taud {dimensionless}

OS:ComponentData,
  {98f447fd-6a82-44b4-9c08-8f827bac461e}, ! Handle
  Component Data 1,                       ! Name
  {56d2c052-ca1b-44b9-918b-98a783c38884}, ! UUID
  {65cef11b-8496-4b5c-97fb-bf7d155f9eab}, ! Version UUID
  1366309289,                             ! Creation Timestamp
  1366309289,                             ! Version Timestamp
  {1aaf0918-8ae2-4459-84e7-bdbce05766b1}; ! Name of Object 1

