
OS:Version,
  {fec23cb4-071e-4981-b50d-d112dfb30a6c}, ! Handle
  0.9.3;                                  ! Version Identifier

OS:SizingPeriod:DesignDay,
  {9eef3653-cfeb-473e-87cc-b648c8cfe717}, ! Handle
  ALPENA Ann Clg .4% Condns DP=>MDB,      ! Name
  26.4,                                   ! Maximum Dry-Bulb Temperature {C}
  12.7,                                   ! Daily Dry-Bulb Temperature Range {deltaC}
  21.8,                                   ! Humidity Indicating Conditions at Maximum Dry-Bulb {BasedOnField A3}
  98828,                                  ! Barometric Pressure {Pa}
  4.8,                                    ! Wind Speed {m/s}
  230,                                    ! Wind Direction {deg}
  0,                                      ! Sky Clearness
  0,                                      ! Rain Indicator
  0,                                      ! Snow Indicator
  21,                                     ! Day of Month
  7,                                      ! Month
  SummerDesignDay,                        ! Day Type
  0,                                      ! Daylight Saving Time Indicator
  Dewpoint,                               ! Humidity Indicating Type
  ,                                       ! Humidity Indicating Day Schedule Name
  DefaultMultipliers,                     ! Dry-Bulb Temperature Range Modifier Type
  ,                                       ! Dry-Bulb Temperature Range Modifier Schedule Name
  ASHRAETau,                              ! Solar Model Indicator
  ,                                       ! Beam Solar Day Schedule Name
  ,                                       ! Diffuse Solar Day Schedule Name
  0.42,                                   ! ASHRAE Taub {dimensionless}
  2.176;                                  ! ASHRAE Taud {dimensionless}

OS:ComponentData,
  {9ca7659d-b378-438e-8e5a-bb31a8e5a01c}, ! Handle
  Component Data 1,                       ! Name
  {0fbf940e-608e-4989-be57-b614101bc683}, ! UUID
  {1f40760b-d62f-40e4-a1fe-06ee25ab4dac}, ! Version UUID
  1366307939,                             ! Creation Timestamp
  1366307939,                             ! Version Timestamp
  {9eef3653-cfeb-473e-87cc-b648c8cfe717}; ! Name of Object 1

