
OS:Version,
  {13409b13-6306-4549-aa04-5d57437386c6}, ! Handle
  0.9.3;                                  ! Version Identifier

OS:SizingPeriod:DesignDay,
  {1824e828-aa24-4438-9bbb-8a82bdbc7483}, ! Handle
  Detroit/City Ann Clg .4% Condns DB=>MWB, ! Name
  32.7,                                   ! Maximum Dry-Bulb Temperature {C}
  9.7,                                    ! Daily Dry-Bulb Temperature Range {deltaC}
  23.2,                                   ! Humidity Indicating Conditions at Maximum Dry-Bulb {BasedOnField A3}
  99063,                                  ! Barometric Pressure {Pa}
  5,                                      ! Wind Speed {m/s}
  230,                                    ! Wind Direction {deg}
  0,                                      ! Sky Clearness
  0,                                      ! Rain Indicator
  0,                                      ! Snow Indicator
  21,                                     ! Day of Month
  7,                                      ! Month
  SummerDesignDay,                        ! Day Type
  0,                                      ! Daylight Saving Time Indicator
  Wetbulb,                                ! Humidity Indicating Type
  ,                                       ! Humidity Indicating Day Schedule Name
  DefaultMultipliers,                     ! Dry-Bulb Temperature Range Modifier Type
  ,                                       ! Dry-Bulb Temperature Range Modifier Schedule Name
  ASHRAETau,                              ! Solar Model Indicator
  ,                                       ! Beam Solar Day Schedule Name
  ,                                       ! Diffuse Solar Day Schedule Name
  0.481,                                  ! ASHRAE Taub {dimensionless}
  1.939;                                  ! ASHRAE Taud {dimensionless}

OS:ComponentData,
  {f08c8b30-4d34-491b-89e2-65b420d54d04}, ! Handle
  Component Data 1,                       ! Name
  {bf29523b-40e7-4ecb-b3dc-12fabe6007df}, ! UUID
  {739cbc00-f4a5-4a85-8fc9-685727578d89}, ! Version UUID
  1366307971,                             ! Creation Timestamp
  1366307971,                             ! Version Timestamp
  {1824e828-aa24-4438-9bbb-8a82bdbc7483}; ! Name of Object 1

