
OS:Version,
  {8adba134-96ce-43ed-8a31-501516e5454a}, ! Handle
  0.9.3;                                  ! Version Identifier

OS:SizingPeriod:DesignDay,
  {22cbe645-ddfc-43d6-80c9-43fcdca2eb49}, ! Handle
  Holloman Afb Ann Htg 99% Condns DB,     ! Name
  -5.3,                                   ! Maximum Dry-Bulb Temperature {C}
  0,                                      ! Daily Dry-Bulb Temperature Range {deltaC}
  -5.3,                                   ! Humidity Indicating Conditions at Maximum Dry-Bulb {BasedOnField A3}
  87204,                                  ! Barometric Pressure {Pa}
  1.9,                                    ! Wind Speed {m/s}
  10,                                     ! Wind Direction {deg}
  0,                                      ! Sky Clearness
  0,                                      ! Rain Indicator
  0,                                      ! Snow Indicator
  21,                                     ! Day of Month
  12,                                     ! Month
  WinterDesignDay,                        ! Day Type
  0,                                      ! Daylight Saving Time Indicator
  Wetbulb,                                ! Humidity Indicating Type
  ,                                       ! Humidity Indicating Day Schedule Name
  DefaultMultipliers,                     ! Dry-Bulb Temperature Range Modifier Type
  ,                                       ! Dry-Bulb Temperature Range Modifier Schedule Name
  ASHRAEClearSky;                         ! Solar Model Indicator

OS:ComponentData,
  {d5b04b7d-e642-4b33-98f1-20c991be3ec3}, ! Handle
  Component Data 1,                       ! Name
  {a23fb799-5c17-480d-b9af-8f1de9ff9411}, ! UUID
  {6cf84def-a1cd-4df6-bf89-07032ef5e4ae}, ! Version UUID
  1366309412,                             ! Creation Timestamp
  1366309412,                             ! Version Timestamp
  {22cbe645-ddfc-43d6-80c9-43fcdca2eb49}; ! Name of Object 1

