
OS:Version,
  {2eb1577a-8c6b-4cd9-aefd-c148132b8ac7}, ! Handle
  0.9.3;                                  ! Version Identifier

OS:SizingPeriod:DesignDay,
  {ef6fa46d-f7ea-445a-87e8-1fb0b3d724ad}, ! Handle
  Great Bend  Awos Ann Clg .4% Condns WB=>MDB, ! Name
  32.3,                                   ! Maximum Dry-Bulb Temperature {C}
  13.2,                                   ! Daily Dry-Bulb Temperature Range {deltaC}
  24.2,                                   ! Humidity Indicating Conditions at Maximum Dry-Bulb {BasedOnField A3}
  94605,                                  ! Barometric Pressure {Pa}
  7.4,                                    ! Wind Speed {m/s}
  190,                                    ! Wind Direction {deg}
  0,                                      ! Sky Clearness
  0,                                      ! Rain Indicator
  0,                                      ! Snow Indicator
  21,                                     ! Day of Month
  7,                                      ! Month
  SummerDesignDay,                        ! Day Type
  0,                                      ! Daylight Saving Time Indicator
  Wetbulb,                                ! Humidity Indicating Type
  ,                                       ! Humidity Indicating Day Schedule Name
  DefaultMultipliers,                     ! Dry-Bulb Temperature Range Modifier Type
  ,                                       ! Dry-Bulb Temperature Range Modifier Schedule Name
  ASHRAETau,                              ! Solar Model Indicator
  ,                                       ! Beam Solar Day Schedule Name
  ,                                       ! Diffuse Solar Day Schedule Name
  0.423,                                  ! ASHRAE Taub {dimensionless}
  2.152;                                  ! ASHRAE Taud {dimensionless}

OS:ComponentData,
  {695bcddc-ce36-489e-9aa3-cd01e7527529}, ! Handle
  Component Data 1,                       ! Name
  {aa4b61e0-e0bf-4694-8611-f889390321f8}, ! UUID
  {4d9591a5-86f9-471f-8bfc-fb23d70361f4}, ! Version UUID
  1366307542,                             ! Creation Timestamp
  1366307542,                             ! Version Timestamp
  {ef6fa46d-f7ea-445a-87e8-1fb0b3d724ad}; ! Name of Object 1

