
OS:Version,
  {967ac771-e2a0-434d-9a8c-2ff865f38b78}, ! Handle
  0.9.3;                                  ! Version Identifier

OS:SizingPeriod:DesignDay,
  {f548fd41-79b5-4d56-914c-f968a0c5ff15}, ! Handle
  Brunswick Malcolm Mckinnon Ap Ann Clg .4% Condns DP=>MDB, ! Name
  29.4,                                   ! Maximum Dry-Bulb Temperature {C}
  7.7,                                    ! Daily Dry-Bulb Temperature Range {deltaC}
  25.8,                                   ! Humidity Indicating Conditions at Maximum Dry-Bulb {BasedOnField A3}
  101277,                                 ! Barometric Pressure {Pa}
  4.5,                                    ! Wind Speed {m/s}
  250,                                    ! Wind Direction {deg}
  0,                                      ! Sky Clearness
  0,                                      ! Rain Indicator
  0,                                      ! Snow Indicator
  21,                                     ! Day of Month
  7,                                      ! Month
  SummerDesignDay,                        ! Day Type
  0,                                      ! Daylight Saving Time Indicator
  Dewpoint,                               ! Humidity Indicating Type
  ,                                       ! Humidity Indicating Day Schedule Name
  DefaultMultipliers,                     ! Dry-Bulb Temperature Range Modifier Type
  ,                                       ! Dry-Bulb Temperature Range Modifier Schedule Name
  ASHRAETau,                              ! Solar Model Indicator
  ,                                       ! Beam Solar Day Schedule Name
  ,                                       ! Diffuse Solar Day Schedule Name
  0.564,                                  ! ASHRAE Taub {dimensionless}
  1.805;                                  ! ASHRAE Taud {dimensionless}

OS:ComponentData,
  {3f2fc46a-c7f8-4ddc-86a9-1a8393c5f291}, ! Handle
  Component Data 1,                       ! Name
  {66569e9c-6f6e-4a19-9d06-bea978bef511}, ! UUID
  {6cbc7e00-587b-4ede-85d4-5cb385a12722}, ! Version UUID
  1366306997,                             ! Creation Timestamp
  1366306997,                             ! Version Timestamp
  {f548fd41-79b5-4d56-914c-f968a0c5ff15}; ! Name of Object 1

