
OS:Version,
  {0f1219b2-4c74-4ed5-b103-090d93031080}, ! Handle
  0.9.3;                                  ! Version Identifier

OS:SizingPeriod:DesignDay,
  {bac7cd6f-095e-4cca-8c18-6a6f5e86723d}, ! Handle
  Harrisburg Ann Clg 1% Condns Enth=>MDB, ! Name
  29.3,                                   ! Maximum Dry-Bulb Temperature {C}
  10.8,                                   ! Daily Dry-Bulb Temperature Range {deltaC}
  72300,                                  ! Humidity Indicating Conditions at Maximum Dry-Bulb {BasedOnField A3}
  100201,                                 ! Barometric Pressure {Pa}
  3.8,                                    ! Wind Speed {m/s}
  300,                                    ! Wind Direction {deg}
  0,                                      ! Sky Clearness
  0,                                      ! Rain Indicator
  0,                                      ! Snow Indicator
  21,                                     ! Day of Month
  7,                                      ! Month
  SummerDesignDay,                        ! Day Type
  0,                                      ! Daylight Saving Time Indicator
  Enthalpy,                               ! Humidity Indicating Type
  ,                                       ! Humidity Indicating Day Schedule Name
  DefaultMultipliers,                     ! Dry-Bulb Temperature Range Modifier Type
  ,                                       ! Dry-Bulb Temperature Range Modifier Schedule Name
  ASHRAETau,                              ! Solar Model Indicator
  ,                                       ! Beam Solar Day Schedule Name
  ,                                       ! Diffuse Solar Day Schedule Name
  0.519,                                  ! ASHRAE Taub {dimensionless}
  1.838;                                  ! ASHRAE Taud {dimensionless}

OS:ComponentData,
  {bdb154c5-85d6-4fd0-9e39-543aa5af15ee}, ! Handle
  Component Data 1,                       ! Name
  {97ac52f0-bad7-460b-85c4-60dbd2cecba8}, ! UUID
  {16ff9ef3-8aaa-4c32-b3e0-794e7dbab49a}, ! Version UUID
  1366310185,                             ! Creation Timestamp
  1366310185,                             ! Version Timestamp
  {bac7cd6f-095e-4cca-8c18-6a6f5e86723d}; ! Name of Object 1

