
OS:Version,
  {09c67cf0-abbe-485f-b3d0-69feaffa2306}, ! Handle
  0.9.3;                                  ! Version Identifier

OS:SizingPeriod:DesignDay,
  {3c947086-2562-4ced-8920-e70dd788b4e8}, ! Handle
  Garden City Municipal Ap Ann Htg 99% Condns DB, ! Name
  -14.3,                                  ! Maximum Dry-Bulb Temperature {C}
  0,                                      ! Daily Dry-Bulb Temperature Range {deltaC}
  -14.3,                                  ! Humidity Indicating Conditions at Maximum Dry-Bulb {BasedOnField A3}
  91212,                                  ! Barometric Pressure {Pa}
  5.2,                                    ! Wind Speed {m/s}
  0,                                      ! Wind Direction {deg}
  0,                                      ! Sky Clearness
  0,                                      ! Rain Indicator
  0,                                      ! Snow Indicator
  21,                                     ! Day of Month
  1,                                      ! Month
  WinterDesignDay,                        ! Day Type
  0,                                      ! Daylight Saving Time Indicator
  Wetbulb,                                ! Humidity Indicating Type
  ,                                       ! Humidity Indicating Day Schedule Name
  DefaultMultipliers,                     ! Dry-Bulb Temperature Range Modifier Type
  ,                                       ! Dry-Bulb Temperature Range Modifier Schedule Name
  ASHRAEClearSky;                         ! Solar Model Indicator

OS:ComponentData,
  {290a19cc-f636-4f24-b108-dee2ee4242ae}, ! Handle
  Component Data 1,                       ! Name
  {ae5f5501-5e53-4521-b238-d41541853953}, ! UUID
  {7700436a-7293-431b-8ac7-969ceb1325f5}, ! Version UUID
  1366307525,                             ! Creation Timestamp
  1366307525,                             ! Version Timestamp
  {3c947086-2562-4ced-8920-e70dd788b4e8}; ! Name of Object 1

