
OS:Version,
  {a81d0668-9a3d-4979-940b-b2521ab53d73}, ! Handle
  0.9.3;                                  ! Version Identifier

OS:SizingPeriod:DesignDay,
  {844f6810-a941-414a-9d1b-edd4a687bf62}, ! Handle
  Kingsville/NAS Ann Clg 2% Condns Enth=>MDB, ! Name
  31.5,                                   ! Maximum Dry-Bulb Temperature {C}
  10.5,                                   ! Daily Dry-Bulb Temperature Range {deltaC}
  83300,                                  ! Humidity Indicating Conditions at Maximum Dry-Bulb {BasedOnField A3}
  101145,                                 ! Barometric Pressure {Pa}
  5.4,                                    ! Wind Speed {m/s}
  130,                                    ! Wind Direction {deg}
  0,                                      ! Sky Clearness
  0,                                      ! Rain Indicator
  0,                                      ! Snow Indicator
  21,                                     ! Day of Month
  7,                                      ! Month
  SummerDesignDay,                        ! Day Type
  0,                                      ! Daylight Saving Time Indicator
  Enthalpy,                               ! Humidity Indicating Type
  ,                                       ! Humidity Indicating Day Schedule Name
  DefaultMultipliers,                     ! Dry-Bulb Temperature Range Modifier Type
  ,                                       ! Dry-Bulb Temperature Range Modifier Schedule Name
  ASHRAETau,                              ! Solar Model Indicator
  ,                                       ! Beam Solar Day Schedule Name
  ,                                       ! Diffuse Solar Day Schedule Name
  0.452,                                  ! ASHRAE Taub {dimensionless}
  2.153;                                  ! ASHRAE Taud {dimensionless}

OS:ComponentData,
  {54bc17ca-1b56-49d5-9298-36298100cf37}, ! Handle
  Component Data 1,                       ! Name
  {5ba84526-462f-457b-9c71-dac4f3767c49}, ! UUID
  {2f5afe8a-f263-44b8-a1ba-862947c8a22e}, ! Version UUID
  1366310773,                             ! Creation Timestamp
  1366310773,                             ! Version Timestamp
  {844f6810-a941-414a-9d1b-edd4a687bf62}; ! Name of Object 1

