
OS:Version,
  {932b548b-3517-4154-bb76-215f5289b206}, ! Handle
  0.9.3;                                  ! Version Identifier

OS:SizingPeriod:DesignDay,
  {bc3396ee-1b9a-4742-a305-afe63dc7af65}, ! Handle
  Bishop Airport Ann Htg 99.6% Condns DB, ! Name
  -9.6,                                   ! Maximum Dry-Bulb Temperature {C}
  0,                                      ! Daily Dry-Bulb Temperature Range {deltaC}
  -9.6,                                   ! Humidity Indicating Conditions at Maximum Dry-Bulb {BasedOnField A3}
  87182,                                  ! Barometric Pressure {Pa}
  2.4,                                    ! Wind Speed {m/s}
  300,                                    ! Wind Direction {deg}
  0,                                      ! Sky Clearness
  0,                                      ! Rain Indicator
  0,                                      ! Snow Indicator
  21,                                     ! Day of Month
  12,                                     ! Month
  WinterDesignDay,                        ! Day Type
  0,                                      ! Daylight Saving Time Indicator
  Wetbulb,                                ! Humidity Indicating Type
  ,                                       ! Humidity Indicating Day Schedule Name
  DefaultMultipliers,                     ! Dry-Bulb Temperature Range Modifier Type
  ,                                       ! Dry-Bulb Temperature Range Modifier Schedule Name
  ASHRAEClearSky;                         ! Solar Model Indicator

OS:ComponentData,
  {a9328678-104c-4fa2-9749-cc281f65fbc5}, ! Handle
  Component Data 1,                       ! Name
  {394ae59c-5f2f-41c6-b0cc-d4e8c0126da1}, ! UUID
  {77795082-ca52-4a31-af11-593cdc8da6e0}, ! Version UUID
  1366306382,                             ! Creation Timestamp
  1366306382,                             ! Version Timestamp
  {bc3396ee-1b9a-4742-a305-afe63dc7af65}; ! Name of Object 1

