
OS:Version,
  {455cb318-536e-4f0e-a58f-4f33db6e4788}, ! Handle
  0.9.3;                                  ! Version Identifier

OS:SizingPeriod:DesignDay,
  {4a51e7fb-873a-4a46-a1b0-71fa7fdf17cd}, ! Handle
  Grand Island Ann Clg .4% Condns DP=>MDB, ! Name
  28.7,                                   ! Maximum Dry-Bulb Temperature {C}
  12.2,                                   ! Daily Dry-Bulb Temperature Range {deltaC}
  23.2,                                   ! Humidity Indicating Conditions at Maximum Dry-Bulb {BasedOnField A3}
  94708,                                  ! Barometric Pressure {Pa}
  6.5,                                    ! Wind Speed {m/s}
  180,                                    ! Wind Direction {deg}
  0,                                      ! Sky Clearness
  0,                                      ! Rain Indicator
  0,                                      ! Snow Indicator
  21,                                     ! Day of Month
  7,                                      ! Month
  SummerDesignDay,                        ! Day Type
  0,                                      ! Daylight Saving Time Indicator
  Dewpoint,                               ! Humidity Indicating Type
  ,                                       ! Humidity Indicating Day Schedule Name
  DefaultMultipliers,                     ! Dry-Bulb Temperature Range Modifier Type
  ,                                       ! Dry-Bulb Temperature Range Modifier Schedule Name
  ASHRAETau,                              ! Solar Model Indicator
  ,                                       ! Beam Solar Day Schedule Name
  ,                                       ! Diffuse Solar Day Schedule Name
  0.405,                                  ! ASHRAE Taub {dimensionless}
  2.23;                                   ! ASHRAE Taud {dimensionless}

OS:ComponentData,
  {e659621e-6e30-4c83-b95f-7a8a766b4f18}, ! Handle
  Component Data 1,                       ! Name
  {4affbf4e-c665-426e-ad82-599b41acdc14}, ! UUID
  {c7116f21-57c2-45c3-8835-4885ddabf05b}, ! Version UUID
  1366309109,                             ! Creation Timestamp
  1366309109,                             ! Version Timestamp
  {4a51e7fb-873a-4a46-a1b0-71fa7fdf17cd}; ! Name of Object 1

