
OS:Version,
  {524a8905-614f-441c-9b82-fe14f7976150}, ! Handle
  0.9.3;                                  ! Version Identifier

OS:SizingPeriod:DesignDay,
  {2a601e70-cd0c-4e9b-b32b-62009bd04b9e}, ! Handle
  Golden Tri Awos Ann Clg .4% Condns WB=>MDB, ! Name
  33.2,                                   ! Maximum Dry-Bulb Temperature {C}
  11.4,                                   ! Daily Dry-Bulb Temperature Range {deltaC}
  26.7,                                   ! Humidity Indicating Conditions at Maximum Dry-Bulb {BasedOnField A3}
  100368,                                 ! Barometric Pressure {Pa}
  2.3,                                    ! Wind Speed {m/s}
  0,                                      ! Wind Direction {deg}
  0,                                      ! Sky Clearness
  0,                                      ! Rain Indicator
  0,                                      ! Snow Indicator
  21,                                     ! Day of Month
  7,                                      ! Month
  SummerDesignDay,                        ! Day Type
  0,                                      ! Daylight Saving Time Indicator
  Wetbulb,                                ! Humidity Indicating Type
  ,                                       ! Humidity Indicating Day Schedule Name
  DefaultMultipliers,                     ! Dry-Bulb Temperature Range Modifier Type
  ,                                       ! Dry-Bulb Temperature Range Modifier Schedule Name
  ASHRAETau,                              ! Solar Model Indicator
  ,                                       ! Beam Solar Day Schedule Name
  ,                                       ! Diffuse Solar Day Schedule Name
  0.565,                                  ! ASHRAE Taub {dimensionless}
  1.764;                                  ! ASHRAE Taud {dimensionless}

OS:ComponentData,
  {d72ebab4-2289-4c7e-8929-a838d380067e}, ! Handle
  Component Data 1,                       ! Name
  {3e4f3896-35ab-4907-8a93-a0331ce465d3}, ! UUID
  {04c093e8-9bd3-4ca3-8638-5a51b5b741ad}, ! Version UUID
  1366308618,                             ! Creation Timestamp
  1366308618,                             ! Version Timestamp
  {2a601e70-cd0c-4e9b-b32b-62009bd04b9e}; ! Name of Object 1

