
OS:Version,
  {0d295d13-2725-4216-9d78-0fa2b9a5cb94}, ! Handle
  0.9.3;                                  ! Version Identifier

OS:SizingPeriod:DesignDay,
  {5326f72e-1b7d-45f7-a75c-08c487b1a1d8}, ! Handle
  Dayton International Airport Ann Clg 2% Condns DP=>MDB, ! Name
  26.1,                                   ! Maximum Dry-Bulb Temperature {C}
  10.3,                                   ! Daily Dry-Bulb Temperature Range {deltaC}
  21.6,                                   ! Humidity Indicating Conditions at Maximum Dry-Bulb {BasedOnField A3}
  97714,                                  ! Barometric Pressure {Pa}
  4.7,                                    ! Wind Speed {m/s}
  240,                                    ! Wind Direction {deg}
  0,                                      ! Sky Clearness
  0,                                      ! Rain Indicator
  0,                                      ! Snow Indicator
  21,                                     ! Day of Month
  7,                                      ! Month
  SummerDesignDay,                        ! Day Type
  0,                                      ! Daylight Saving Time Indicator
  Dewpoint,                               ! Humidity Indicating Type
  ,                                       ! Humidity Indicating Day Schedule Name
  DefaultMultipliers,                     ! Dry-Bulb Temperature Range Modifier Type
  ,                                       ! Dry-Bulb Temperature Range Modifier Schedule Name
  ASHRAETau,                              ! Solar Model Indicator
  ,                                       ! Beam Solar Day Schedule Name
  ,                                       ! Diffuse Solar Day Schedule Name
  0.478,                                  ! ASHRAE Taub {dimensionless}
  1.955;                                  ! ASHRAE Taud {dimensionless}

OS:ComponentData,
  {3d5b5604-e26e-48bb-8865-88ab6b8476db}, ! Handle
  Component Data 1,                       ! Name
  {b51ef121-65e0-4160-9a0c-74dfc9411361}, ! UUID
  {511619fa-35da-48db-afcb-79f86f0d609f}, ! Version UUID
  1366309822,                             ! Creation Timestamp
  1366309822,                             ! Version Timestamp
  {5326f72e-1b7d-45f7-a75c-08c487b1a1d8}; ! Name of Object 1

