
OS:Version,
  {db051a77-dc65-40aa-8bc3-867e496ee6d3}, ! Handle
  0.9.3;                                  ! Version Identifier

OS:SizingPeriod:DesignDay,
  {ea162b59-8694-4218-8e29-224651602bc7}, ! Handle
  Crane Lake  Awos Ann Clg .4% Condns WB=>MDB, ! Name
  27.9,                                   ! Maximum Dry-Bulb Temperature {C}
  12,                                     ! Daily Dry-Bulb Temperature Range {deltaC}
  22.9,                                   ! Humidity Indicating Conditions at Maximum Dry-Bulb {BasedOnField A3}
  97190,                                  ! Barometric Pressure {Pa}
  2.5,                                    ! Wind Speed {m/s}
  180,                                    ! Wind Direction {deg}
  0,                                      ! Sky Clearness
  0,                                      ! Rain Indicator
  0,                                      ! Snow Indicator
  21,                                     ! Day of Month
  7,                                      ! Month
  SummerDesignDay,                        ! Day Type
  0,                                      ! Daylight Saving Time Indicator
  Wetbulb,                                ! Humidity Indicating Type
  ,                                       ! Humidity Indicating Day Schedule Name
  DefaultMultipliers,                     ! Dry-Bulb Temperature Range Modifier Type
  ,                                       ! Dry-Bulb Temperature Range Modifier Schedule Name
  ASHRAETau,                              ! Solar Model Indicator
  ,                                       ! Beam Solar Day Schedule Name
  ,                                       ! Diffuse Solar Day Schedule Name
  0.4,                                    ! ASHRAE Taub {dimensionless}
  2.217;                                  ! ASHRAE Taud {dimensionless}

OS:ComponentData,
  {93941ce4-8ed5-43c5-b1b5-ba735572e8ff}, ! Handle
  Component Data 1,                       ! Name
  {1967e7b9-8e84-4c85-a66a-4f44cb0869d2}, ! UUID
  {805579b8-8407-4d90-98f5-3c980b73b883}, ! Version UUID
  1366308184,                             ! Creation Timestamp
  1366308184,                             ! Version Timestamp
  {ea162b59-8694-4218-8e29-224651602bc7}; ! Name of Object 1

