
OS:Version,
  {ea7e1e67-d157-4837-a57a-030c09db1d4f}, ! Handle
  0.9.3;                                  ! Version Identifier

OS:SizingPeriod:DesignDay,
  {9c5859bf-e22d-4409-a1d4-dab08c6f6ed3}, ! Handle
  Jack Northrop Fld H Ann Htg Wind 99% Condns WS=>MCDB, ! Name
  15.4,                                   ! Maximum Dry-Bulb Temperature {C}
  0,                                      ! Daily Dry-Bulb Temperature Range {deltaC}
  15.4,                                   ! Humidity Indicating Conditions at Maximum Dry-Bulb {BasedOnField A3}
  101073,                                 ! Barometric Pressure {Pa}
  7.1,                                    ! Wind Speed {m/s}
  70,                                     ! Wind Direction {deg}
  0,                                      ! Sky Clearness
  0,                                      ! Rain Indicator
  0,                                      ! Snow Indicator
  21,                                     ! Day of Month
  12,                                     ! Month
  WinterDesignDay,                        ! Day Type
  0,                                      ! Daylight Saving Time Indicator
  Wetbulb,                                ! Humidity Indicating Type
  ,                                       ! Humidity Indicating Day Schedule Name
  DefaultMultipliers,                     ! Dry-Bulb Temperature Range Modifier Type
  ,                                       ! Dry-Bulb Temperature Range Modifier Schedule Name
  ASHRAEClearSky;                         ! Solar Model Indicator

OS:ComponentData,
  {7d66b60a-f9b0-4249-8703-6537c98faee0}, ! Handle
  Component Data 1,                       ! Name
  {ea24499f-96b2-47e1-957a-672128daeaa7}, ! UUID
  {ef4c0d39-d0b8-4814-b124-2a205d5838b0}, ! Version UUID
  1366306446,                             ! Creation Timestamp
  1366306446,                             ! Version Timestamp
  {9c5859bf-e22d-4409-a1d4-dab08c6f6ed3}; ! Name of Object 1

