
OS:Version,
  {d96d234d-0f13-4c8c-8bc0-380cb572cb7d}, ! Handle
  0.9.3;                                  ! Version Identifier

OS:SizingPeriod:DesignDay,
  {fc08d7fe-e36e-4cea-94fb-2f15bc2552f7}, ! Handle
  Burlington Ann Clg 2% Condns DB=>MWB,   ! Name
  31,                                     ! Maximum Dry-Bulb Temperature {C}
  10.3,                                   ! Daily Dry-Bulb Temperature Range {deltaC}
  23.4,                                   ! Humidity Indicating Conditions at Maximum Dry-Bulb {BasedOnField A3}
  98792,                                  ! Barometric Pressure {Pa}
  4.5,                                    ! Wind Speed {m/s}
  200,                                    ! Wind Direction {deg}
  0,                                      ! Sky Clearness
  0,                                      ! Rain Indicator
  0,                                      ! Snow Indicator
  21,                                     ! Day of Month
  7,                                      ! Month
  SummerDesignDay,                        ! Day Type
  0,                                      ! Daylight Saving Time Indicator
  Wetbulb,                                ! Humidity Indicating Type
  ,                                       ! Humidity Indicating Day Schedule Name
  DefaultMultipliers,                     ! Dry-Bulb Temperature Range Modifier Type
  ,                                       ! Dry-Bulb Temperature Range Modifier Schedule Name
  ASHRAETau,                              ! Solar Model Indicator
  ,                                       ! Beam Solar Day Schedule Name
  ,                                       ! Diffuse Solar Day Schedule Name
  0.45,                                   ! ASHRAE Taub {dimensionless}
  2.07;                                   ! ASHRAE Taud {dimensionless}

OS:ComponentData,
  {8f6cdb89-53a0-4508-98bd-a3129b52bdc7}, ! Handle
  Component Data 1,                       ! Name
  {00269b03-51d8-45d4-8538-a6805af9acb4}, ! UUID
  {834527c2-8639-4b3a-b346-aa9ae96aa776}, ! Version UUID
  1366307139,                             ! Creation Timestamp
  1366307139,                             ! Version Timestamp
  {fc08d7fe-e36e-4cea-94fb-2f15bc2552f7}; ! Name of Object 1

