
OS:Version,
  {66e14724-7ead-4ab6-89ec-1b657e199f5c}, ! Handle
  0.9.3;                                  ! Version Identifier

OS:SizingPeriod:DesignDay,
  {f90ea037-e84b-47d1-995a-7a4c446514b0}, ! Handle
  La Crosse Ann Clg .4% Condns WB=>MDB,   ! Name
  31.1,                                   ! Maximum Dry-Bulb Temperature {C}
  11.1,                                   ! Daily Dry-Bulb Temperature Range {deltaC}
  25.5,                                   ! Humidity Indicating Conditions at Maximum Dry-Bulb {BasedOnField A3}
  98922,                                  ! Barometric Pressure {Pa}
  5.4,                                    ! Wind Speed {m/s}
  180,                                    ! Wind Direction {deg}
  0,                                      ! Sky Clearness
  0,                                      ! Rain Indicator
  0,                                      ! Snow Indicator
  21,                                     ! Day of Month
  7,                                      ! Month
  SummerDesignDay,                        ! Day Type
  0,                                      ! Daylight Saving Time Indicator
  Wetbulb,                                ! Humidity Indicating Type
  ,                                       ! Humidity Indicating Day Schedule Name
  DefaultMultipliers,                     ! Dry-Bulb Temperature Range Modifier Type
  ,                                       ! Dry-Bulb Temperature Range Modifier Schedule Name
  ASHRAETau,                              ! Solar Model Indicator
  ,                                       ! Beam Solar Day Schedule Name
  ,                                       ! Diffuse Solar Day Schedule Name
  0.431,                                  ! ASHRAE Taub {dimensionless}
  2.126;                                  ! ASHRAE Taud {dimensionless}

OS:ComponentData,
  {646be112-94cf-4815-aa43-43c678f4c523}, ! Handle
  Component Data 1,                       ! Name
  {dcb35419-24d5-461d-aca9-a0f1c0e7fd59}, ! UUID
  {c3dfeffa-3068-4ac8-8ebe-918bdb45fc95}, ! Version UUID
  1366311508,                             ! Creation Timestamp
  1366311508,                             ! Version Timestamp
  {f90ea037-e84b-47d1-995a-7a4c446514b0}; ! Name of Object 1

