
OS:Version,
  {bcf36126-a4c2-4175-b473-0459594af4b7}, ! Handle
  0.9.3;                                  ! Version Identifier

OS:SizingPeriod:DesignDay,
  {dd9d0b17-b255-4b0f-890e-334396c67c53}, ! Handle
  Las Vegas Mccarran Intl Ap Ann Clg .4% Condns DB=>MWB, ! Name
  42.4,                                   ! Maximum Dry-Bulb Temperature {C}
  13,                                     ! Daily Dry-Bulb Temperature Range {deltaC}
  20.1,                                   ! Humidity Indicating Conditions at Maximum Dry-Bulb {BasedOnField A3}
  93779,                                  ! Barometric Pressure {Pa}
  4.9,                                    ! Wind Speed {m/s}
  230,                                    ! Wind Direction {deg}
  0,                                      ! Sky Clearness
  0,                                      ! Rain Indicator
  0,                                      ! Snow Indicator
  21,                                     ! Day of Month
  7,                                      ! Month
  SummerDesignDay,                        ! Day Type
  0,                                      ! Daylight Saving Time Indicator
  Wetbulb,                                ! Humidity Indicating Type
  ,                                       ! Humidity Indicating Day Schedule Name
  DefaultMultipliers,                     ! Dry-Bulb Temperature Range Modifier Type
  ,                                       ! Dry-Bulb Temperature Range Modifier Schedule Name
  ASHRAETau,                              ! Solar Model Indicator
  ,                                       ! Beam Solar Day Schedule Name
  ,                                       ! Diffuse Solar Day Schedule Name
  0.55,                                   ! ASHRAE Taub {dimensionless}
  1.674;                                  ! ASHRAE Taud {dimensionless}

OS:ComponentData,
  {31ed7df0-e860-416f-9d58-c44ee72b03b2}, ! Handle
  Component Data 1,                       ! Name
  {e0f0ce7c-248a-42c1-9c2c-a816ba8c27a1}, ! UUID
  {36e5b1ba-6ac0-4b5a-9d04-26eed903a20b}, ! Version UUID
  1366309501,                             ! Creation Timestamp
  1366309501,                             ! Version Timestamp
  {dd9d0b17-b255-4b0f-890e-334396c67c53}; ! Name of Object 1

