
OS:Version,
  {e017166c-00d3-4c8c-ab24-f9c5daca84bc}, ! Handle
  0.9.3;                                  ! Version Identifier

OS:SizingPeriod:DesignDay,
  {e9b5498c-d4fa-4397-b4d0-bbf6d0ae08da}, ! Handle
  King Salmon Ann Clg 2% Condns Enth=>MDB, ! Name
  17.3,                                   ! Maximum Dry-Bulb Temperature {C}
  8.6,                                    ! Daily Dry-Bulb Temperature Range {deltaC}
  38700,                                  ! Humidity Indicating Conditions at Maximum Dry-Bulb {BasedOnField A3}
  101145,                                 ! Barometric Pressure {Pa}
  4.8,                                    ! Wind Speed {m/s}
  270,                                    ! Wind Direction {deg}
  0,                                      ! Sky Clearness
  0,                                      ! Rain Indicator
  0,                                      ! Snow Indicator
  21,                                     ! Day of Month
  7,                                      ! Month
  SummerDesignDay,                        ! Day Type
  0,                                      ! Daylight Saving Time Indicator
  Enthalpy,                               ! Humidity Indicating Type
  ,                                       ! Humidity Indicating Day Schedule Name
  DefaultMultipliers,                     ! Dry-Bulb Temperature Range Modifier Type
  ,                                       ! Dry-Bulb Temperature Range Modifier Schedule Name
  ASHRAETau,                              ! Solar Model Indicator
  ,                                       ! Beam Solar Day Schedule Name
  ,                                       ! Diffuse Solar Day Schedule Name
  0.384,                                  ! ASHRAE Taub {dimensionless}
  2.227;                                  ! ASHRAE Taud {dimensionless}

OS:ComponentData,
  {bcdafccd-3529-448a-ab01-41ce52aeec9f}, ! Handle
  Component Data 1,                       ! Name
  {b1772df2-476e-46da-8684-3ba700a1e06a}, ! UUID
  {4bcca13c-7227-4f3c-9a24-ae48f49a7dae}, ! Version UUID
  1366305364,                             ! Creation Timestamp
  1366305364,                             ! Version Timestamp
  {e9b5498c-d4fa-4397-b4d0-bbf6d0ae08da}; ! Name of Object 1

