
OS:Version,
  {6f63db08-cff9-4f3e-81e5-413d5309a6e1}, ! Handle
  0.9.3;                                  ! Version Identifier

OS:SizingPeriod:DesignDay,
  {e359be88-1680-403a-b2e6-1e4b7cbb2de7}, ! Handle
  Lebanon Municipal Ann Htg Wind 99% Condns WS=>MCDB, ! Name
  -5.9,                                   ! Maximum Dry-Bulb Temperature {C}
  0,                                      ! Daily Dry-Bulb Temperature Range {deltaC}
  -5.9,                                   ! Humidity Indicating Conditions at Maximum Dry-Bulb {BasedOnField A3}
  99158,                                  ! Barometric Pressure {Pa}
  7.9,                                    ! Wind Speed {m/s}
  170,                                    ! Wind Direction {deg}
  0,                                      ! Sky Clearness
  0,                                      ! Rain Indicator
  0,                                      ! Snow Indicator
  21,                                     ! Day of Month
  1,                                      ! Month
  WinterDesignDay,                        ! Day Type
  0,                                      ! Daylight Saving Time Indicator
  Wetbulb,                                ! Humidity Indicating Type
  ,                                       ! Humidity Indicating Day Schedule Name
  DefaultMultipliers,                     ! Dry-Bulb Temperature Range Modifier Type
  ,                                       ! Dry-Bulb Temperature Range Modifier Schedule Name
  ASHRAEClearSky;                         ! Solar Model Indicator

OS:ComponentData,
  {83928f43-5c23-4d77-b0d4-68991ec94719}, ! Handle
  Component Data 1,                       ! Name
  {b4b01318-f092-4c9a-9170-44d175436b38}, ! UUID
  {24048816-ae6d-4049-b7d6-782df6f6be73}, ! Version UUID
  1366309256,                             ! Creation Timestamp
  1366309256,                             ! Version Timestamp
  {e359be88-1680-403a-b2e6-1e4b7cbb2de7}; ! Name of Object 1

