
OS:Version,
  {0875e573-4f8f-469d-8e80-140d680710ea}, ! Handle
  0.9.3;                                  ! Version Identifier

OS:SizingPeriod:DesignDay,
  {f96e46e3-a841-489f-aa92-cf142d4cc6b8}, ! Handle
  Cotulla Faa Ap Ann Htg Wind 99% Condns WS=>MCDB, ! Name
  17.1,                                   ! Maximum Dry-Bulb Temperature {C}
  0,                                      ! Daily Dry-Bulb Temperature Range {deltaC}
  17.1,                                   ! Humidity Indicating Conditions at Maximum Dry-Bulb {BasedOnField A3}
  99643,                                  ! Barometric Pressure {Pa}
  8.1,                                    ! Wind Speed {m/s}
  20,                                     ! Wind Direction {deg}
  0,                                      ! Sky Clearness
  0,                                      ! Rain Indicator
  0,                                      ! Snow Indicator
  21,                                     ! Day of Month
  1,                                      ! Month
  WinterDesignDay,                        ! Day Type
  0,                                      ! Daylight Saving Time Indicator
  Wetbulb,                                ! Humidity Indicating Type
  ,                                       ! Humidity Indicating Day Schedule Name
  DefaultMultipliers,                     ! Dry-Bulb Temperature Range Modifier Type
  ,                                       ! Dry-Bulb Temperature Range Modifier Schedule Name
  ASHRAEClearSky;                         ! Solar Model Indicator

OS:ComponentData,
  {8bd54d29-0d5f-4c13-ba2e-1e65da55fa1c}, ! Handle
  Component Data 1,                       ! Name
  {2865f6a9-2fb8-4200-a453-44a38a16f044}, ! UUID
  {b00970b1-c9ff-45aa-ad48-c9ddf2f0eacf}, ! Version UUID
  1366310638,                             ! Creation Timestamp
  1366310638,                             ! Version Timestamp
  {f96e46e3-a841-489f-aa92-cf142d4cc6b8}; ! Name of Object 1

