
OS:Version,
  {5368ba97-779f-4602-a845-10663733e3ef}, ! Handle
  0.9.3;                                  ! Version Identifier

OS:SizingPeriod:DesignDay,
  {afc23b9d-bc76-462f-8426-9a65b5e34544}, ! Handle
  Billings Ann Hum_n 99.6% Condns DP=>MCDB, ! Name
  -23.8,                                  ! Maximum Dry-Bulb Temperature {C}
  0,                                      ! Daily Dry-Bulb Temperature Range {deltaC}
  -28.3,                                  ! Humidity Indicating Conditions at Maximum Dry-Bulb {BasedOnField A3}
  88919,                                  ! Barometric Pressure {Pa}
  3.9,                                    ! Wind Speed {m/s}
  20,                                     ! Wind Direction {deg}
  0,                                      ! Sky Clearness
  0,                                      ! Rain Indicator
  0,                                      ! Snow Indicator
  21,                                     ! Day of Month
  1,                                      ! Month
  WinterDesignDay,                        ! Day Type
  0,                                      ! Daylight Saving Time Indicator
  Dewpoint,                               ! Humidity Indicating Type
  ,                                       ! Humidity Indicating Day Schedule Name
  DefaultMultipliers,                     ! Dry-Bulb Temperature Range Modifier Type
  ,                                       ! Dry-Bulb Temperature Range Modifier Schedule Name
  ASHRAEClearSky;                         ! Solar Model Indicator

OS:ComponentData,
  {54253311-767b-4958-8474-fb2d6bec690d}, ! Handle
  Component Data 1,                       ! Name
  {850b8596-5b1d-4881-9cbe-eeb4d176ae2a}, ! UUID
  {d8dd66ff-343a-4029-8a10-6a9d3b264c9a}, ! Version UUID
  1366308698,                             ! Creation Timestamp
  1366308698,                             ! Version Timestamp
  {afc23b9d-bc76-462f-8426-9a65b5e34544}; ! Name of Object 1

