
OS:Version,
  {8534b16e-d672-4f90-891a-08b571e8851e}, ! Handle
  0.9.3;                                  ! Version Identifier

OS:SizingPeriod:DesignDay,
  {fd958708-23f1-430c-acce-38eef89a5f2a}, ! Handle
  FORT_SMITH Ann Clg 1% Condns DB=>MWB,   ! Name
  35.8,                                   ! Maximum Dry-Bulb Temperature {C}
  11.5,                                   ! Daily Dry-Bulb Temperature Range {deltaC}
  24.6,                                   ! Humidity Indicating Conditions at Maximum Dry-Bulb {BasedOnField A3}
  99643,                                  ! Barometric Pressure {Pa}
  3.7,                                    ! Wind Speed {m/s}
  230,                                    ! Wind Direction {deg}
  0,                                      ! Sky Clearness
  0,                                      ! Rain Indicator
  0,                                      ! Snow Indicator
  21,                                     ! Day of Month
  7,                                      ! Month
  SummerDesignDay,                        ! Day Type
  0,                                      ! Daylight Saving Time Indicator
  Wetbulb,                                ! Humidity Indicating Type
  ,                                       ! Humidity Indicating Day Schedule Name
  DefaultMultipliers,                     ! Dry-Bulb Temperature Range Modifier Type
  ,                                       ! Dry-Bulb Temperature Range Modifier Schedule Name
  ASHRAETau,                              ! Solar Model Indicator
  ,                                       ! Beam Solar Day Schedule Name
  ,                                       ! Diffuse Solar Day Schedule Name
  0.49,                                   ! ASHRAE Taub {dimensionless}
  1.983;                                  ! ASHRAE Taud {dimensionless}

OS:ComponentData,
  {f6310fd1-ea9b-4b72-851e-b21dca0f5103}, ! Handle
  Component Data 1,                       ! Name
  {a60a273c-9b8f-4d3d-bed8-c80d214c423a}, ! UUID
  {617ceba6-b112-47db-837f-c8cf16b225bc}, ! Version UUID
  1366306207,                             ! Creation Timestamp
  1366306207,                             ! Version Timestamp
  {fd958708-23f1-430c-acce-38eef89a5f2a}; ! Name of Object 1

