
OS:Version,
  {9ce1d06b-c759-477d-af77-3184c6108d8d}, ! Handle
  0.9.3;                                  ! Version Identifier

OS:SizingPeriod:DesignDay,
  {cf9165f8-d1b4-4235-8c46-56bfef8a407f}, ! Handle
  Antigo Lang Awos Ann Htg Wind 99.6% Condns WS=>MCDB, ! Name
  -6.2,                                   ! Maximum Dry-Bulb Temperature {C}
  0,                                      ! Daily Dry-Bulb Temperature Range {deltaC}
  -6.2,                                   ! Humidity Indicating Conditions at Maximum Dry-Bulb {BasedOnField A3}
  95874,                                  ! Barometric Pressure {Pa}
  10.8,                                   ! Wind Speed {m/s}
  290,                                    ! Wind Direction {deg}
  0,                                      ! Sky Clearness
  0,                                      ! Rain Indicator
  0,                                      ! Snow Indicator
  21,                                     ! Day of Month
  1,                                      ! Month
  WinterDesignDay,                        ! Day Type
  0,                                      ! Daylight Saving Time Indicator
  Wetbulb,                                ! Humidity Indicating Type
  ,                                       ! Humidity Indicating Day Schedule Name
  DefaultMultipliers,                     ! Dry-Bulb Temperature Range Modifier Type
  ,                                       ! Dry-Bulb Temperature Range Modifier Schedule Name
  ASHRAEClearSky;                         ! Solar Model Indicator

OS:ComponentData,
  {d1f6e180-98cc-4a14-8534-5d957c20dc75}, ! Handle
  Component Data 1,                       ! Name
  {66278002-3e03-4086-a0a3-ac6b8a15d58f}, ! UUID
  {72f47db4-e796-4f70-9460-102b57b8d15b}, ! Version UUID
  1366311478,                             ! Creation Timestamp
  1366311478,                             ! Version Timestamp
  {cf9165f8-d1b4-4235-8c46-56bfef8a407f}; ! Name of Object 1

