
OS:Version,
  {2f4d4e90-2e1e-44db-89e6-e5122fe5aaf6}, ! Handle
  0.9.3;                                  ! Version Identifier

OS:SizingPeriod:DesignDay,
  {43c24580-ac1b-44b9-bfe5-9f3175d1fb5f}, ! Handle
  Aurora Buckley Field Angb Ann Htg 99% Condns DB, ! Name
  -14.1,                                  ! Maximum Dry-Bulb Temperature {C}
  0,                                      ! Daily Dry-Bulb Temperature Range {deltaC}
  -14.1,                                  ! Humidity Indicating Conditions at Maximum Dry-Bulb {BasedOnField A3}
  82237,                                  ! Barometric Pressure {Pa}
  2.5,                                    ! Wind Speed {m/s}
  180,                                    ! Wind Direction {deg}
  0,                                      ! Sky Clearness
  0,                                      ! Rain Indicator
  0,                                      ! Snow Indicator
  21,                                     ! Day of Month
  12,                                     ! Month
  WinterDesignDay,                        ! Day Type
  0,                                      ! Daylight Saving Time Indicator
  Wetbulb,                                ! Humidity Indicating Type
  ,                                       ! Humidity Indicating Day Schedule Name
  DefaultMultipliers,                     ! Dry-Bulb Temperature Range Modifier Type
  ,                                       ! Dry-Bulb Temperature Range Modifier Schedule Name
  ASHRAEClearSky;                         ! Solar Model Indicator

OS:ComponentData,
  {8b5749c2-19b3-4698-b8b3-e312be800565}, ! Handle
  Component Data 1,                       ! Name
  {78c85f63-1130-4900-8812-bac46862afb8}, ! UUID
  {e3502dd2-b1e2-42cb-9c0f-c9847af73041}, ! Version UUID
  1366306653,                             ! Creation Timestamp
  1366306653,                             ! Version Timestamp
  {43c24580-ac1b-44b9-bfe5-9f3175d1fb5f}; ! Name of Object 1

