
OS:Version,
  {3417a0a3-555c-44b4-8179-b6d2788dbe7e}, ! Handle
  0.9.3;                                  ! Version Identifier

OS:SizingPeriod:DesignDay,
  {6d2d014b-dd62-42f4-b95d-7ad467ddc0a6}, ! Handle
  Duluth Ann Clg 2% Condns Enth=>MDB,     ! Name
  24,                                     ! Maximum Dry-Bulb Temperature {C}
  10.9,                                   ! Daily Dry-Bulb Temperature Range {deltaC}
  59100,                                  ! Humidity Indicating Conditions at Maximum Dry-Bulb {BasedOnField A3}
  96242,                                  ! Barometric Pressure {Pa}
  5.2,                                    ! Wind Speed {m/s}
  220,                                    ! Wind Direction {deg}
  0,                                      ! Sky Clearness
  0,                                      ! Rain Indicator
  0,                                      ! Snow Indicator
  21,                                     ! Day of Month
  7,                                      ! Month
  SummerDesignDay,                        ! Day Type
  0,                                      ! Daylight Saving Time Indicator
  Enthalpy,                               ! Humidity Indicating Type
  ,                                       ! Humidity Indicating Day Schedule Name
  DefaultMultipliers,                     ! Dry-Bulb Temperature Range Modifier Type
  ,                                       ! Dry-Bulb Temperature Range Modifier Schedule Name
  ASHRAETau,                              ! Solar Model Indicator
  ,                                       ! Beam Solar Day Schedule Name
  ,                                       ! Diffuse Solar Day Schedule Name
  0.398,                                  ! ASHRAE Taub {dimensionless}
  2.218;                                  ! ASHRAE Taud {dimensionless}

OS:ComponentData,
  {88879ca5-48d8-40d7-b169-1b9fda9aca06}, ! Handle
  Component Data 1,                       ! Name
  {bed4c392-c7fa-4b35-b361-47fa49fddb2f}, ! UUID
  {1ef9c84d-4f53-46ea-beff-6b2951cbdeab}, ! Version UUID
  1366308204,                             ! Creation Timestamp
  1366308204,                             ! Version Timestamp
  {6d2d014b-dd62-42f4-b95d-7ad467ddc0a6}; ! Name of Object 1

