
OS:Version,
  {921a0194-8fd2-4310-9e29-3894b223bbf6}, ! Handle
  0.9.3;                                  ! Version Identifier

OS:SizingPeriod:DesignDay,
  {f8182d7d-128e-423f-a818-465fb990ae30}, ! Handle
  Gulkana Ann Clg 1% Condns WB=>MDB,      ! Name
  21.8,                                   ! Maximum Dry-Bulb Temperature {C}
  11.7,                                   ! Daily Dry-Bulb Temperature Range {deltaC}
  14.1,                                   ! Humidity Indicating Conditions at Maximum Dry-Bulb {BasedOnField A3}
  95679,                                  ! Barometric Pressure {Pa}
  2.6,                                    ! Wind Speed {m/s}
  160,                                    ! Wind Direction {deg}
  0,                                      ! Sky Clearness
  0,                                      ! Rain Indicator
  0,                                      ! Snow Indicator
  21,                                     ! Day of Month
  7,                                      ! Month
  SummerDesignDay,                        ! Day Type
  0,                                      ! Daylight Saving Time Indicator
  Wetbulb,                                ! Humidity Indicating Type
  ,                                       ! Humidity Indicating Day Schedule Name
  DefaultMultipliers,                     ! Dry-Bulb Temperature Range Modifier Type
  ,                                       ! Dry-Bulb Temperature Range Modifier Schedule Name
  ASHRAETau,                              ! Solar Model Indicator
  ,                                       ! Beam Solar Day Schedule Name
  ,                                       ! Diffuse Solar Day Schedule Name
  0.385,                                  ! ASHRAE Taub {dimensionless}
  2.111;                                  ! ASHRAE Taud {dimensionless}

OS:ComponentData,
  {789bc17f-d6d3-4b3a-9534-bf40685c577d}, ! Handle
  Component Data 1,                       ! Name
  {3903de0e-3438-42ac-abe6-e0dd3a39d73e}, ! UUID
  {53b59c69-f83b-4713-914b-c3ae088a6855}, ! Version UUID
  1366305283,                             ! Creation Timestamp
  1366305283,                             ! Version Timestamp
  {f8182d7d-128e-423f-a818-465fb990ae30}; ! Name of Object 1

