
OS:Version,
  {9091b486-9bf5-46d0-a2e3-429a1469a360}, ! Handle
  0.9.3;                                  ! Version Identifier

OS:SizingPeriod:DesignDay,
  {a3f6bda8-b5e0-420e-94ad-9630d8da8c47}, ! Handle
  Caribou Ann Clg .4% Condns DP=>MDB,     ! Name
  24.2,                                   ! Maximum Dry-Bulb Temperature {C}
  10.9,                                   ! Daily Dry-Bulb Temperature Range {deltaC}
  20.7,                                   ! Humidity Indicating Conditions at Maximum Dry-Bulb {BasedOnField A3}
  99063,                                  ! Barometric Pressure {Pa}
  4.3,                                    ! Wind Speed {m/s}
  250,                                    ! Wind Direction {deg}
  0,                                      ! Sky Clearness
  0,                                      ! Rain Indicator
  0,                                      ! Snow Indicator
  21,                                     ! Day of Month
  7,                                      ! Month
  SummerDesignDay,                        ! Day Type
  0,                                      ! Daylight Saving Time Indicator
  Dewpoint,                               ! Humidity Indicating Type
  ,                                       ! Humidity Indicating Day Schedule Name
  DefaultMultipliers,                     ! Dry-Bulb Temperature Range Modifier Type
  ,                                       ! Dry-Bulb Temperature Range Modifier Schedule Name
  ASHRAETau,                              ! Solar Model Indicator
  ,                                       ! Beam Solar Day Schedule Name
  ,                                       ! Diffuse Solar Day Schedule Name
  0.429,                                  ! ASHRAE Taub {dimensionless}
  2.106;                                  ! ASHRAE Taud {dimensionless}

OS:ComponentData,
  {cfa070b7-2d7c-4421-aaf4-e092bd4ac3ef}, ! Handle
  Component Data 1,                       ! Name
  {6412e1df-aa44-49f6-9477-57f89d8213ac}, ! UUID
  {9801f857-1dc3-4a16-ade9-c72443a9ca47}, ! Version UUID
  1366307891,                             ! Creation Timestamp
  1366307891,                             ! Version Timestamp
  {a3f6bda8-b5e0-420e-94ad-9630d8da8c47}; ! Name of Object 1

