
OS:Version,
  {99a29db2-52b1-45ec-a36e-3cbe70a5f5b5}, ! Handle
  0.9.3;                                  ! Version Identifier

OS:SizingPeriod:DesignDay,
  {00e706bb-5689-437d-af3c-a050a0c41656}, ! Handle
  Hondo Municipal Ap Ann Clg 2% Condns DB=>MWB, ! Name
  35.1,                                   ! Maximum Dry-Bulb Temperature {C}
  12.4,                                   ! Daily Dry-Bulb Temperature Range {deltaC}
  23.1,                                   ! Humidity Indicating Conditions at Maximum Dry-Bulb {BasedOnField A3}
  98006,                                  ! Barometric Pressure {Pa}
  4.7,                                    ! Wind Speed {m/s}
  140,                                    ! Wind Direction {deg}
  0,                                      ! Sky Clearness
  0,                                      ! Rain Indicator
  0,                                      ! Snow Indicator
  21,                                     ! Day of Month
  8,                                      ! Month
  SummerDesignDay,                        ! Day Type
  0,                                      ! Daylight Saving Time Indicator
  Wetbulb,                                ! Humidity Indicating Type
  ,                                       ! Humidity Indicating Day Schedule Name
  DefaultMultipliers,                     ! Dry-Bulb Temperature Range Modifier Type
  ,                                       ! Dry-Bulb Temperature Range Modifier Schedule Name
  ASHRAETau,                              ! Solar Model Indicator
  ,                                       ! Beam Solar Day Schedule Name
  ,                                       ! Diffuse Solar Day Schedule Name
  0.437,                                  ! ASHRAE Taub {dimensionless}
  2.197;                                  ! ASHRAE Taud {dimensionless}

OS:ComponentData,
  {6d200c72-ca28-4139-a1dc-ac4613b0b7cb}, ! Handle
  Component Data 1,                       ! Name
  {a669a370-f53f-4043-80ef-acc7fc45ebaa}, ! UUID
  {0918f591-2529-40ce-ab4c-fc33f69aab09}, ! Version UUID
  1366310736,                             ! Creation Timestamp
  1366310736,                             ! Version Timestamp
  {00e706bb-5689-437d-af3c-a050a0c41656}; ! Name of Object 1

