
OS:Version,
  {3d859287-6907-4898-9006-06caf624879d}, ! Handle
  0.9.3;                                  ! Version Identifier

OS:SizingPeriod:DesignDay,
  {490a5667-730e-42ef-a6a8-fe152840e042}, ! Handle
  Cut Bank Muni Ap Ann Htg 99% Condns DB, ! Name
  -25,                                    ! Maximum Dry-Bulb Temperature {C}
  0,                                      ! Daily Dry-Bulb Temperature Range {deltaC}
  -25,                                    ! Humidity Indicating Conditions at Maximum Dry-Bulb {BasedOnField A3}
  88037,                                  ! Barometric Pressure {Pa}
  2.7,                                    ! Wind Speed {m/s}
  350,                                    ! Wind Direction {deg}
  0,                                      ! Sky Clearness
  0,                                      ! Rain Indicator
  0,                                      ! Snow Indicator
  21,                                     ! Day of Month
  1,                                      ! Month
  WinterDesignDay,                        ! Day Type
  0,                                      ! Daylight Saving Time Indicator
  Wetbulb,                                ! Humidity Indicating Type
  ,                                       ! Humidity Indicating Day Schedule Name
  DefaultMultipliers,                     ! Dry-Bulb Temperature Range Modifier Type
  ,                                       ! Dry-Bulb Temperature Range Modifier Schedule Name
  ASHRAEClearSky;                         ! Solar Model Indicator

OS:ComponentData,
  {635e53d6-fd6d-46d3-bcce-676eb907f8bf}, ! Handle
  Component Data 1,                       ! Name
  {ddade188-ff03-40e7-8f8b-a785e86c0504}, ! UUID
  {3d07829c-b994-459e-9597-d49d98603c65}, ! Version UUID
  1366308744,                             ! Creation Timestamp
  1366308744,                             ! Version Timestamp
  {490a5667-730e-42ef-a6a8-fe152840e042}; ! Name of Object 1

