
OS:Version,
  {a003f366-fde8-4542-ad7d-8fb86cd90c7d}, ! Handle
  0.9.3;                                  ! Version Identifier

OS:SizingPeriod:DesignDay,
  {fd77058e-c600-440d-aecd-aab5d1f97564}, ! Handle
  Gulkana Intermediate Field Ann Clg 1% Condns WB=>MDB, ! Name
  21.8,                                   ! Maximum Dry-Bulb Temperature {C}
  11.7,                                   ! Daily Dry-Bulb Temperature Range {deltaC}
  14.1,                                   ! Humidity Indicating Conditions at Maximum Dry-Bulb {BasedOnField A3}
  95713,                                  ! Barometric Pressure {Pa}
  2.6,                                    ! Wind Speed {m/s}
  160,                                    ! Wind Direction {deg}
  0,                                      ! Sky Clearness
  0,                                      ! Rain Indicator
  0,                                      ! Snow Indicator
  21,                                     ! Day of Month
  7,                                      ! Month
  SummerDesignDay,                        ! Day Type
  0,                                      ! Daylight Saving Time Indicator
  Wetbulb,                                ! Humidity Indicating Type
  ,                                       ! Humidity Indicating Day Schedule Name
  DefaultMultipliers,                     ! Dry-Bulb Temperature Range Modifier Type
  ,                                       ! Dry-Bulb Temperature Range Modifier Schedule Name
  ASHRAETau,                              ! Solar Model Indicator
  ,                                       ! Beam Solar Day Schedule Name
  ,                                       ! Diffuse Solar Day Schedule Name
  0.385,                                  ! ASHRAE Taub {dimensionless}
  2.111;                                  ! ASHRAE Taud {dimensionless}

OS:ComponentData,
  {1e0ceb5c-1270-4957-9c2b-04d73de4f404}, ! Handle
  Component Data 1,                       ! Name
  {a267078c-54aa-4f77-ab65-9de959ae0b55}, ! UUID
  {4335f60a-428c-477f-8d46-5956bd7660c9}, ! Version UUID
  1366305294,                             ! Creation Timestamp
  1366305294,                             ! Version Timestamp
  {fd77058e-c600-440d-aecd-aab5d1f97564}; ! Name of Object 1

