
OS:Version,
  {3a520207-217e-48f5-8ce2-47b134fc2ee0}, ! Handle
  0.9.3;                                  ! Version Identifier

OS:SizingPeriod:DesignDay,
  {8540c9a6-faf8-4b4c-ad95-20c5de495b7c}, ! Handle
  Kingsville/NAS Ann Htg 99.6% Condns DB, ! Name
  0,                                      ! Maximum Dry-Bulb Temperature {C}
  0,                                      ! Daily Dry-Bulb Temperature Range {deltaC}
  0,                                      ! Humidity Indicating Conditions at Maximum Dry-Bulb {BasedOnField A3}
  101145,                                 ! Barometric Pressure {Pa}
  4.1,                                    ! Wind Speed {m/s}
  0,                                      ! Wind Direction {deg}
  0,                                      ! Sky Clearness
  0,                                      ! Rain Indicator
  0,                                      ! Snow Indicator
  21,                                     ! Day of Month
  1,                                      ! Month
  WinterDesignDay,                        ! Day Type
  0,                                      ! Daylight Saving Time Indicator
  Wetbulb,                                ! Humidity Indicating Type
  ,                                       ! Humidity Indicating Day Schedule Name
  DefaultMultipliers,                     ! Dry-Bulb Temperature Range Modifier Type
  ,                                       ! Dry-Bulb Temperature Range Modifier Schedule Name
  ASHRAEClearSky;                         ! Solar Model Indicator

OS:ComponentData,
  {8f0f1513-e4d9-4185-96c2-c202700d6f15}, ! Handle
  Component Data 1,                       ! Name
  {c135d3f2-0f00-4036-8042-202fbf522ee9}, ! UUID
  {d08d6ffc-21b9-4636-9204-7ad0657c39dd}, ! Version UUID
  1366310771,                             ! Creation Timestamp
  1366310771,                             ! Version Timestamp
  {8540c9a6-faf8-4b4c-ad95-20c5de495b7c}; ! Name of Object 1

