
OS:Version,
  {67d08de0-6a2f-4450-968a-0bd12a0751b3}, ! Handle
  0.9.3;                                  ! Version Identifier

OS:SizingPeriod:DesignDay,
  {691cd7f6-0aa9-448c-b06e-886aab914076}, ! Handle
  Columbus/Int'l Airport Ann Clg 2% Condns WB=>MDB, ! Name
  28,                                     ! Maximum Dry-Bulb Temperature {C}
  10.5,                                   ! Daily Dry-Bulb Temperature Range {deltaC}
  23.3,                                   ! Humidity Indicating Conditions at Maximum Dry-Bulb {BasedOnField A3}
  98369,                                  ! Barometric Pressure {Pa}
  4.3,                                    ! Wind Speed {m/s}
  240,                                    ! Wind Direction {deg}
  0,                                      ! Sky Clearness
  0,                                      ! Rain Indicator
  0,                                      ! Snow Indicator
  21,                                     ! Day of Month
  7,                                      ! Month
  SummerDesignDay,                        ! Day Type
  0,                                      ! Daylight Saving Time Indicator
  Wetbulb,                                ! Humidity Indicating Type
  ,                                       ! Humidity Indicating Day Schedule Name
  DefaultMultipliers,                     ! Dry-Bulb Temperature Range Modifier Type
  ,                                       ! Dry-Bulb Temperature Range Modifier Schedule Name
  ASHRAETau,                              ! Solar Model Indicator
  ,                                       ! Beam Solar Day Schedule Name
  ,                                       ! Diffuse Solar Day Schedule Name
  0.484,                                  ! ASHRAE Taub {dimensionless}
  1.943;                                  ! ASHRAE Taud {dimensionless}

OS:ComponentData,
  {3fd9c403-72ff-4822-adf0-d5abeb1284ec}, ! Handle
  Component Data 1,                       ! Name
  {ea5b1180-aeb0-493a-937a-c5258fd98a59}, ! UUID
  {f7b26870-4dbb-4ea8-bfa4-ae5816d914ea}, ! Version UUID
  1366309790,                             ! Creation Timestamp
  1366309790,                             ! Version Timestamp
  {691cd7f6-0aa9-448c-b06e-886aab914076}; ! Name of Object 1

