
OS:Version,
  {b8a658aa-8f8e-4405-8fd2-0f2234227f92}, ! Handle
  0.9.3;                                  ! Version Identifier

OS:SizingPeriod:DesignDay,
  {8d35322c-22ab-41a9-a608-8315df84aac3}, ! Handle
  Abilene Ann Clg 1% Condns Enth=>MDB,    ! Name
  31.1,                                   ! Maximum Dry-Bulb Temperature {C}
  11.6,                                   ! Daily Dry-Bulb Temperature Range {deltaC}
  73100,                                  ! Humidity Indicating Conditions at Maximum Dry-Bulb {BasedOnField A3}
  94935,                                  ! Barometric Pressure {Pa}
  5.3,                                    ! Wind Speed {m/s}
  160,                                    ! Wind Direction {deg}
  0,                                      ! Sky Clearness
  0,                                      ! Rain Indicator
  0,                                      ! Snow Indicator
  21,                                     ! Day of Month
  7,                                      ! Month
  SummerDesignDay,                        ! Day Type
  0,                                      ! Daylight Saving Time Indicator
  Enthalpy,                               ! Humidity Indicating Type
  ,                                       ! Humidity Indicating Day Schedule Name
  DefaultMultipliers,                     ! Dry-Bulb Temperature Range Modifier Type
  ,                                       ! Dry-Bulb Temperature Range Modifier Schedule Name
  ASHRAETau,                              ! Solar Model Indicator
  ,                                       ! Beam Solar Day Schedule Name
  ,                                       ! Diffuse Solar Day Schedule Name
  0.426,                                  ! ASHRAE Taub {dimensionless}
  2.172;                                  ! ASHRAE Taud {dimensionless}

OS:ComponentData,
  {3e943e15-606c-4db5-8c1b-6f8e816a7433}, ! Handle
  Component Data 1,                       ! Name
  {7c494b80-6eee-45f7-9955-74b704b09f15}, ! UUID
  {4145db94-8eb1-4c16-bb61-693fe1a51e16}, ! Version UUID
  1366310556,                             ! Creation Timestamp
  1366310556,                             ! Version Timestamp
  {8d35322c-22ab-41a9-a608-8315df84aac3}; ! Name of Object 1

