
OS:Version,
  {a9f3b09a-ac02-479b-8603-4bda1936f43e}, ! Handle
  0.9.3;                                  ! Version Identifier

OS:SizingPeriod:DesignDay,
  {d1980e49-dd93-41d8-8854-51ce285bf9fd}, ! Handle
  Fresno Yosemite Intl Ap Ann Hum_n 99% Condns DP=>MCDB, ! Name
  9.4,                                    ! Maximum Dry-Bulb Temperature {C}
  0,                                      ! Daily Dry-Bulb Temperature Range {deltaC}
  -2.3,                                   ! Humidity Indicating Conditions at Maximum Dry-Bulb {BasedOnField A3}
  100106,                                 ! Barometric Pressure {Pa}
  1.2,                                    ! Wind Speed {m/s}
  80,                                     ! Wind Direction {deg}
  0,                                      ! Sky Clearness
  0,                                      ! Rain Indicator
  0,                                      ! Snow Indicator
  21,                                     ! Day of Month
  12,                                     ! Month
  WinterDesignDay,                        ! Day Type
  0,                                      ! Daylight Saving Time Indicator
  Dewpoint,                               ! Humidity Indicating Type
  ,                                       ! Humidity Indicating Day Schedule Name
  DefaultMultipliers,                     ! Dry-Bulb Temperature Range Modifier Type
  ,                                       ! Dry-Bulb Temperature Range Modifier Schedule Name
  ASHRAEClearSky;                         ! Solar Model Indicator

OS:ComponentData,
  {d68f979a-bddd-4cbd-8bb8-36727868db6b}, ! Handle
  Component Data 1,                       ! Name
  {eab3b737-5e12-47a1-b683-e8e1b0d4d714}, ! UUID
  {1ee066c6-8a7a-4b28-9abe-0a0c3585a295}, ! Version UUID
  1366306439,                             ! Creation Timestamp
  1366306439,                             ! Version Timestamp
  {d1980e49-dd93-41d8-8854-51ce285bf9fd}; ! Name of Object 1

