
OS:Version,
  {6096fd26-c633-4aeb-a8a0-d8e91dc0e07e}, ! Handle
  0.9.3;                                  ! Version Identifier

OS:SizingPeriod:DesignDay,
  {61605e26-2f9b-42dd-9af4-60a007cc2c84}, ! Handle
  Dayton Wright Patterson Afb Ann Htg 99% Condns DB, ! Name
  -13,                                    ! Maximum Dry-Bulb Temperature {C}
  0,                                      ! Daily Dry-Bulb Temperature Range {deltaC}
  -13,                                    ! Humidity Indicating Conditions at Maximum Dry-Bulb {BasedOnField A3}
  98358,                                  ! Barometric Pressure {Pa}
  3.3,                                    ! Wind Speed {m/s}
  260,                                    ! Wind Direction {deg}
  0,                                      ! Sky Clearness
  0,                                      ! Rain Indicator
  0,                                      ! Snow Indicator
  21,                                     ! Day of Month
  1,                                      ! Month
  WinterDesignDay,                        ! Day Type
  0,                                      ! Daylight Saving Time Indicator
  Wetbulb,                                ! Humidity Indicating Type
  ,                                       ! Humidity Indicating Day Schedule Name
  DefaultMultipliers,                     ! Dry-Bulb Temperature Range Modifier Type
  ,                                       ! Dry-Bulb Temperature Range Modifier Schedule Name
  ASHRAEClearSky;                         ! Solar Model Indicator

OS:ComponentData,
  {7337db37-660c-47d1-ae34-803c5d576a8a}, ! Handle
  Component Data 1,                       ! Name
  {d7c6dc8f-d3d6-4386-b834-93136f6a8b62}, ! UUID
  {fe128bc2-f834-4929-98da-b8735358c29a}, ! Version UUID
  1366309811,                             ! Creation Timestamp
  1366309811,                             ! Version Timestamp
  {61605e26-2f9b-42dd-9af4-60a007cc2c84}; ! Name of Object 1

