
OS:Version,
  {d38ba7f8-5c0b-4bb5-828f-92eb8197fc9f}, ! Handle
  0.9.3;                                  ! Version Identifier

OS:SizingPeriod:DesignDay,
  {f833017c-dddc-48d4-9cb0-246e79dd97e6}, ! Handle
  Los Angeles Intl Arpt Ann Clg 2% Condns DP=>MDB, ! Name
  22.2,                                   ! Maximum Dry-Bulb Temperature {C}
  6,                                      ! Daily Dry-Bulb Temperature Range {deltaC}
  18.4,                                   ! Humidity Indicating Conditions at Maximum Dry-Bulb {BasedOnField A3}
  100965,                                 ! Barometric Pressure {Pa}
  4.1,                                    ! Wind Speed {m/s}
  250,                                    ! Wind Direction {deg}
  0,                                      ! Sky Clearness
  0,                                      ! Rain Indicator
  0,                                      ! Snow Indicator
  21,                                     ! Day of Month
  8,                                      ! Month
  SummerDesignDay,                        ! Day Type
  0,                                      ! Daylight Saving Time Indicator
  Dewpoint,                               ! Humidity Indicating Type
  ,                                       ! Humidity Indicating Day Schedule Name
  DefaultMultipliers,                     ! Dry-Bulb Temperature Range Modifier Type
  ,                                       ! Dry-Bulb Temperature Range Modifier Schedule Name
  ASHRAETau,                              ! Solar Model Indicator
  ,                                       ! Beam Solar Day Schedule Name
  ,                                       ! Diffuse Solar Day Schedule Name
  0.44,                                   ! ASHRAE Taub {dimensionless}
  2.108;                                  ! ASHRAE Taud {dimensionless}

OS:ComponentData,
  {744c0619-c20e-4fe4-bdbf-f4617558231d}, ! Handle
  Component Data 1,                       ! Name
  {72adb290-ccf9-4aec-a506-2d44d09056e3}, ! UUID
  {bcb3cd7c-83d6-4764-bc4a-4ce14b8ba554}, ! Version UUID
  1366306484,                             ! Creation Timestamp
  1366306484,                             ! Version Timestamp
  {f833017c-dddc-48d4-9cb0-246e79dd97e6}; ! Name of Object 1

