
OS:Version,
  {7c86fee4-8356-4cf4-9d95-8b2dd2b43369}, ! Handle
  0.9.3;                                  ! Version Identifier

OS:SizingPeriod:DesignDay,
  {81166bbe-b615-4b5a-afb0-11f9e096346b}, ! Handle
  Hunter Aaf Ann Htg 99% Condns DB,       ! Name
  -0.1,                                   ! Maximum Dry-Bulb Temperature {C}
  0,                                      ! Daily Dry-Bulb Temperature Range {deltaC}
  -0.1,                                   ! Humidity Indicating Conditions at Maximum Dry-Bulb {BasedOnField A3}
  101169,                                 ! Barometric Pressure {Pa}
  2.4,                                    ! Wind Speed {m/s}
  270,                                    ! Wind Direction {deg}
  0,                                      ! Sky Clearness
  0,                                      ! Rain Indicator
  0,                                      ! Snow Indicator
  21,                                     ! Day of Month
  1,                                      ! Month
  WinterDesignDay,                        ! Day Type
  0,                                      ! Daylight Saving Time Indicator
  Wetbulb,                                ! Humidity Indicating Type
  ,                                       ! Humidity Indicating Day Schedule Name
  DefaultMultipliers,                     ! Dry-Bulb Temperature Range Modifier Type
  ,                                       ! Dry-Bulb Temperature Range Modifier Schedule Name
  ASHRAEClearSky;                         ! Solar Model Indicator

OS:ComponentData,
  {a6fa8f4e-4801-482b-b7bc-30db67c6a085}, ! Handle
  Component Data 1,                       ! Name
  {cccd647d-ef8d-4335-89f9-df7c1e3145f5}, ! UUID
  {fb687630-9506-4ec7-b34a-1f63b4da2e86}, ! Version UUID
  1366307038,                             ! Creation Timestamp
  1366307038,                             ! Version Timestamp
  {81166bbe-b615-4b5a-afb0-11f9e096346b}; ! Name of Object 1

