
OS:Version,
  {d1c7b759-e136-43ba-b2c1-c4b43fe5a1ab}, ! Handle
  0.9.3;                                  ! Version Identifier

OS:SizingPeriod:DesignDay,
  {20ef1646-5517-4d5a-af4a-e41f926b5289}, ! Handle
  Jackson Reynolds Field Ann Clg 2% Condns Enth=>MDB, ! Name
  27.1,                                   ! Maximum Dry-Bulb Temperature {C}
  11.3,                                   ! Daily Dry-Bulb Temperature Range {deltaC}
  68600,                                  ! Humidity Indicating Conditions at Maximum Dry-Bulb {BasedOnField A3}
  97726,                                  ! Barometric Pressure {Pa}
  4.6,                                    ! Wind Speed {m/s}
  220,                                    ! Wind Direction {deg}
  0,                                      ! Sky Clearness
  0,                                      ! Rain Indicator
  0,                                      ! Snow Indicator
  21,                                     ! Day of Month
  7,                                      ! Month
  SummerDesignDay,                        ! Day Type
  0,                                      ! Daylight Saving Time Indicator
  Enthalpy,                               ! Humidity Indicating Type
  ,                                       ! Humidity Indicating Day Schedule Name
  DefaultMultipliers,                     ! Dry-Bulb Temperature Range Modifier Type
  ,                                       ! Dry-Bulb Temperature Range Modifier Schedule Name
  ASHRAETau,                              ! Solar Model Indicator
  ,                                       ! Beam Solar Day Schedule Name
  ,                                       ! Diffuse Solar Day Schedule Name
  0.429,                                  ! ASHRAE Taub {dimensionless}
  2.131;                                  ! ASHRAE Taud {dimensionless}

OS:ComponentData,
  {5ff9a6db-8672-47c4-8851-7d633c648690}, ! Handle
  Component Data 1,                       ! Name
  {c2d6869f-8ee4-42c7-adb1-7267d8dea2f4}, ! UUID
  {57778590-3736-4149-8efc-4cdc6566673c}, ! Version UUID
  1366308046,                             ! Creation Timestamp
  1366308046,                             ! Version Timestamp
  {20ef1646-5517-4d5a-af4a-e41f926b5289}; ! Name of Object 1

