
OS:Version,
  {c3cddb66-ce7e-4e0f-bbba-ac85bec0a5bb}, ! Handle
  0.9.3;                                  ! Version Identifier

OS:SizingPeriod:DesignDay,
  {65037011-5ab3-4e01-aa75-9e555030c887}, ! Handle
  Daytona Beach Ann Clg 1% Condns WB=>MDB, ! Name
  30.6,                                   ! Maximum Dry-Bulb Temperature {C}
  9,                                      ! Daily Dry-Bulb Temperature Range {deltaC}
  26.2,                                   ! Humidity Indicating Conditions at Maximum Dry-Bulb {BasedOnField A3}
  101193,                                 ! Barometric Pressure {Pa}
  4.4,                                    ! Wind Speed {m/s}
  230,                                    ! Wind Direction {deg}
  0,                                      ! Sky Clearness
  0,                                      ! Rain Indicator
  0,                                      ! Snow Indicator
  21,                                     ! Day of Month
  7,                                      ! Month
  SummerDesignDay,                        ! Day Type
  0,                                      ! Daylight Saving Time Indicator
  Wetbulb,                                ! Humidity Indicating Type
  ,                                       ! Humidity Indicating Day Schedule Name
  DefaultMultipliers,                     ! Dry-Bulb Temperature Range Modifier Type
  ,                                       ! Dry-Bulb Temperature Range Modifier Schedule Name
  ASHRAETau,                              ! Solar Model Indicator
  ,                                       ! Beam Solar Day Schedule Name
  ,                                       ! Diffuse Solar Day Schedule Name
  0.512,                                  ! ASHRAE Taub {dimensionless}
  1.951;                                  ! ASHRAE Taud {dimensionless}

OS:ComponentData,
  {ff6c394c-b935-4063-a2f0-7c9a7d11aa90}, ! Handle
  Component Data 1,                       ! Name
  {0aff83c6-6380-4b50-8e4f-4d11f11afdfa}, ! UUID
  {6f988ab4-106d-4edf-9015-eaca70f43783}, ! Version UUID
  1366306791,                             ! Creation Timestamp
  1366306791,                             ! Version Timestamp
  {65037011-5ab3-4e01-aa75-9e555030c887}; ! Name of Object 1

