
OS:Version,
  {c3ba82a0-2107-483f-a21d-3279f6d13264}, ! Handle
  0.9.3;                                  ! Version Identifier

OS:SizingPeriod:DesignDay,
  {0ecce613-0a2c-4305-ba14-3289b38ec40d}, ! Handle
  Litchfield Muni Ann Hum_n 99% Condns DP=>MCDB, ! Name
  -22.7,                                  ! Maximum Dry-Bulb Temperature {C}
  0,                                      ! Daily Dry-Bulb Temperature Range {deltaC}
  -27,                                    ! Humidity Indicating Conditions at Maximum Dry-Bulb {BasedOnField A3}
  97225,                                  ! Barometric Pressure {Pa}
  2.9,                                    ! Wind Speed {m/s}
  310,                                    ! Wind Direction {deg}
  0,                                      ! Sky Clearness
  0,                                      ! Rain Indicator
  0,                                      ! Snow Indicator
  21,                                     ! Day of Month
  1,                                      ! Month
  WinterDesignDay,                        ! Day Type
  0,                                      ! Daylight Saving Time Indicator
  Dewpoint,                               ! Humidity Indicating Type
  ,                                       ! Humidity Indicating Day Schedule Name
  DefaultMultipliers,                     ! Dry-Bulb Temperature Range Modifier Type
  ,                                       ! Dry-Bulb Temperature Range Modifier Schedule Name
  ASHRAEClearSky;                         ! Solar Model Indicator

OS:ComponentData,
  {4f3037c9-cddd-405c-ae99-0e5b5e15b40f}, ! Handle
  Component Data 1,                       ! Name
  {3818b438-d30e-402e-be18-db50ab6b2f56}, ! UUID
  {868696b9-b87b-4ccb-98f9-192f4b5254c1}, ! Version UUID
  1366308281,                             ! Creation Timestamp
  1366308281,                             ! Version Timestamp
  {0ecce613-0a2c-4305-ba14-3289b38ec40d}; ! Name of Object 1

