
OS:Version,
  {53b164d7-eb51-43b9-9fae-97137c96ea57}, ! Handle
  0.9.3;                                  ! Version Identifier

OS:SizingPeriod:DesignDay,
  {2ad591b9-2d02-4cb7-a495-17122f58c89b}, ! Handle
  Crestview Bob Sikes Ap Ann Htg 99.6% Condns DB, ! Name
  -4.4,                                   ! Maximum Dry-Bulb Temperature {C}
  0,                                      ! Daily Dry-Bulb Temperature Range {deltaC}
  -4.4,                                   ! Humidity Indicating Conditions at Maximum Dry-Bulb {BasedOnField A3}
  100630,                                 ! Barometric Pressure {Pa}
  0.9,                                    ! Wind Speed {m/s}
  0,                                      ! Wind Direction {deg}
  0,                                      ! Sky Clearness
  0,                                      ! Rain Indicator
  0,                                      ! Snow Indicator
  21,                                     ! Day of Month
  1,                                      ! Month
  WinterDesignDay,                        ! Day Type
  0,                                      ! Daylight Saving Time Indicator
  Wetbulb,                                ! Humidity Indicating Type
  ,                                       ! Humidity Indicating Day Schedule Name
  DefaultMultipliers,                     ! Dry-Bulb Temperature Range Modifier Type
  ,                                       ! Dry-Bulb Temperature Range Modifier Schedule Name
  ASHRAEClearSky;                         ! Solar Model Indicator

OS:ComponentData,
  {931dc5d3-7a80-4bb0-9237-a50684fbf97f}, ! Handle
  Component Data 1,                       ! Name
  {efca7085-d2b4-4d08-a75a-8d08e622b98c}, ! UUID
  {22e09310-ebe1-4066-b95e-0d3327443853}, ! Version UUID
  1366306783,                             ! Creation Timestamp
  1366306783,                             ! Version Timestamp
  {2ad591b9-2d02-4cb7-a495-17122f58c89b}; ! Name of Object 1

