
OS:Version,
  {74ee844a-8772-4759-a961-74e9b3b1eced}, ! Handle
  0.9.3;                                  ! Version Identifier

OS:SizingPeriod:DesignDay,
  {93010298-396a-47f2-97b5-cb10d8e4f219}, ! Handle
  Beatrice Municipal Ann Htg 99% Condns DB, ! Name
  -16.2,                                  ! Maximum Dry-Bulb Temperature {C}
  0,                                      ! Daily Dry-Bulb Temperature Range {deltaC}
  -16.2,                                  ! Humidity Indicating Conditions at Maximum Dry-Bulb {BasedOnField A3}
  96576,                                  ! Barometric Pressure {Pa}
  3.7,                                    ! Wind Speed {m/s}
  10,                                     ! Wind Direction {deg}
  0,                                      ! Sky Clearness
  0,                                      ! Rain Indicator
  0,                                      ! Snow Indicator
  21,                                     ! Day of Month
  1,                                      ! Month
  WinterDesignDay,                        ! Day Type
  0,                                      ! Daylight Saving Time Indicator
  Wetbulb,                                ! Humidity Indicating Type
  ,                                       ! Humidity Indicating Day Schedule Name
  DefaultMultipliers,                     ! Dry-Bulb Temperature Range Modifier Type
  ,                                       ! Dry-Bulb Temperature Range Modifier Schedule Name
  ASHRAEClearSky;                         ! Solar Model Indicator

OS:ComponentData,
  {c8c38b4a-e4a9-40de-9812-c07f093b763a}, ! Handle
  Component Data 1,                       ! Name
  {85139c90-8ea0-48a9-b86c-fb57c620e736}, ! UUID
  {e11f06de-9e7c-498b-a1ca-4d1d4c413932}, ! Version UUID
  1366309085,                             ! Creation Timestamp
  1366309085,                             ! Version Timestamp
  {93010298-396a-47f2-97b5-cb10d8e4f219}; ! Name of Object 1

