
OS:Version,
  {07e19f45-f0e8-4b88-8a5b-8ac9c6ff993b}, ! Handle
  0.9.3;                                  ! Version Identifier

OS:SizingPeriod:DesignDay,
  {adf52794-83e4-4ed4-9ee1-ab29a1d60354}, ! Handle
  Imperial Ann Clg 1% Condns DB=>MWB,     ! Name
  42.7,                                   ! Maximum Dry-Bulb Temperature {C}
  15.8,                                   ! Daily Dry-Bulb Temperature Range {deltaC}
  23,                                     ! Humidity Indicating Conditions at Maximum Dry-Bulb {BasedOnField A3}
  101529,                                 ! Barometric Pressure {Pa}
  3.5,                                    ! Wind Speed {m/s}
  110,                                    ! Wind Direction {deg}
  0,                                      ! Sky Clearness
  0,                                      ! Rain Indicator
  0,                                      ! Snow Indicator
  21,                                     ! Day of Month
  7,                                      ! Month
  SummerDesignDay,                        ! Day Type
  0,                                      ! Daylight Saving Time Indicator
  Wetbulb,                                ! Humidity Indicating Type
  ,                                       ! Humidity Indicating Day Schedule Name
  DefaultMultipliers,                     ! Dry-Bulb Temperature Range Modifier Type
  ,                                       ! Dry-Bulb Temperature Range Modifier Schedule Name
  ASHRAETau,                              ! Solar Model Indicator
  ,                                       ! Beam Solar Day Schedule Name
  ,                                       ! Diffuse Solar Day Schedule Name
  0.528,                                  ! ASHRAE Taub {dimensionless}
  1.788;                                  ! ASHRAE Taud {dimensionless}

