
OS:Version,
  {ec724d70-4f91-437e-a6f0-6689ae7efc95}, ! Handle
  0.9.3;                                  ! Version Identifier

OS:SizingPeriod:DesignDay,
  {b0500c0f-4711-46d3-95bf-29e476e4960a}, ! Handle
  Killeen Muni  Awos Ann Clg 1% Condns WB=>MDB, ! Name
  32.6,                                   ! Maximum Dry-Bulb Temperature {C}
  11.5,                                   ! Daily Dry-Bulb Temperature Range {deltaC}
  25.1,                                   ! Humidity Indicating Conditions at Maximum Dry-Bulb {BasedOnField A3}
  98264,                                  ! Barometric Pressure {Pa}
  4.4,                                    ! Wind Speed {m/s}
  170,                                    ! Wind Direction {deg}
  0,                                      ! Sky Clearness
  0,                                      ! Rain Indicator
  0,                                      ! Snow Indicator
  21,                                     ! Day of Month
  7,                                      ! Month
  SummerDesignDay,                        ! Day Type
  0,                                      ! Daylight Saving Time Indicator
  Wetbulb,                                ! Humidity Indicating Type
  ,                                       ! Humidity Indicating Day Schedule Name
  DefaultMultipliers,                     ! Dry-Bulb Temperature Range Modifier Type
  ,                                       ! Dry-Bulb Temperature Range Modifier Schedule Name
  ASHRAETau,                              ! Solar Model Indicator
  ,                                       ! Beam Solar Day Schedule Name
  ,                                       ! Diffuse Solar Day Schedule Name
  0.445,                                  ! ASHRAE Taub {dimensionless}
  2.145;                                  ! ASHRAE Taud {dimensionless}

OS:ComponentData,
  {3f0404f0-c86d-4ab1-87cf-bbe5437648ed}, ! Handle
  Component Data 1,                       ! Name
  {2c7b3088-3af1-42fc-be5a-6d9ec0662cfe}, ! UUID
  {361081d5-f43a-47af-a25d-ba138634a20c}, ! Version UUID
  1366310768,                             ! Creation Timestamp
  1366310768,                             ! Version Timestamp
  {b0500c0f-4711-46d3-95bf-29e476e4960a}; ! Name of Object 1

