
OS:Version,
  {95ede818-11c9-4a38-affd-865d3c220a5b}, ! Handle
  0.9.3;                                  ! Version Identifier

OS:SizingPeriod:DesignDay,
  {c7e57188-30b0-45f9-a3b3-b0eae67d26ae}, ! Handle
  Albany Dougherty County Ap Ann Clg 2% Condns DP=>MDB, ! Name
  27.5,                                   ! Maximum Dry-Bulb Temperature {C}
  10.7,                                   ! Daily Dry-Bulb Temperature Range {deltaC}
  24,                                     ! Humidity Indicating Conditions at Maximum Dry-Bulb {BasedOnField A3}
  100630,                                 ! Barometric Pressure {Pa}
  3.6,                                    ! Wind Speed {m/s}
  240,                                    ! Wind Direction {deg}
  0,                                      ! Sky Clearness
  0,                                      ! Rain Indicator
  0,                                      ! Snow Indicator
  21,                                     ! Day of Month
  7,                                      ! Month
  SummerDesignDay,                        ! Day Type
  0,                                      ! Daylight Saving Time Indicator
  Dewpoint,                               ! Humidity Indicating Type
  ,                                       ! Humidity Indicating Day Schedule Name
  DefaultMultipliers,                     ! Dry-Bulb Temperature Range Modifier Type
  ,                                       ! Dry-Bulb Temperature Range Modifier Schedule Name
  ASHRAETau,                              ! Solar Model Indicator
  ,                                       ! Beam Solar Day Schedule Name
  ,                                       ! Diffuse Solar Day Schedule Name
  0.547,                                  ! ASHRAE Taub {dimensionless}
  1.824;                                  ! ASHRAE Taud {dimensionless}

OS:ComponentData,
  {73f6d9ac-7e7b-4087-b40f-5867e96b57d2}, ! Handle
  Component Data 1,                       ! Name
  {2ea290e3-30e6-4c15-b594-9cbd13a1e108}, ! UUID
  {955bc576-aaf4-4d84-8e49-d2625f0f22cb}, ! Version UUID
  1366306962,                             ! Creation Timestamp
  1366306962,                             ! Version Timestamp
  {c7e57188-30b0-45f9-a3b3-b0eae67d26ae}; ! Name of Object 1

