
OS:Version,
  {8ca36e1f-c387-4fa0-802e-3db6d41d1545}, ! Handle
  0.9.3;                                  ! Version Identifier

OS:SizingPeriod:DesignDay,
  {5fb38b95-a4c8-4076-95e2-577560c306a3}, ! Handle
  ANNETTE Ann Htg 99% Condns DB,          ! Name
  -6.5,                                   ! Maximum Dry-Bulb Temperature {C}
  0,                                      ! Daily Dry-Bulb Temperature Range {deltaC}
  -6.5,                                   ! Humidity Indicating Conditions at Maximum Dry-Bulb {BasedOnField A3}
  100917,                                 ! Barometric Pressure {Pa}
  3.1,                                    ! Wind Speed {m/s}
  50,                                     ! Wind Direction {deg}
  0,                                      ! Sky Clearness
  0,                                      ! Rain Indicator
  0,                                      ! Snow Indicator
  21,                                     ! Day of Month
  1,                                      ! Month
  WinterDesignDay,                        ! Day Type
  0,                                      ! Daylight Saving Time Indicator
  Wetbulb,                                ! Humidity Indicating Type
  ,                                       ! Humidity Indicating Day Schedule Name
  DefaultMultipliers,                     ! Dry-Bulb Temperature Range Modifier Type
  ,                                       ! Dry-Bulb Temperature Range Modifier Schedule Name
  ASHRAEClearSky;                         ! Solar Model Indicator

OS:ComponentData,
  {123ffe40-64f4-4691-875f-dbfedf9a4d98}, ! Handle
  Component Data 1,                       ! Name
  {3e16629b-8834-4ba3-a183-2d7cab3db1dd}, ! UUID
  {b0300187-e4cc-49b3-8373-5bb83b4b97da}, ! Version UUID
  1366304714,                             ! Creation Timestamp
  1366304714,                             ! Version Timestamp
  {5fb38b95-a4c8-4076-95e2-577560c306a3}; ! Name of Object 1

