
OS:Version,
  {a5060da9-7a3d-43aa-9412-b332ee07b203}, ! Handle
  0.9.3;                                  ! Version Identifier

OS:SizingPeriod:DesignDay,
  {4ea4382f-4476-4590-90ad-fb1f4e84ce2b}, ! Handle
  Dalhart Municipal Ap Ann Hum_n 99% Condns DP=>MCDB, ! Name
  -4.3,                                   ! Maximum Dry-Bulb Temperature {C}
  0,                                      ! Daily Dry-Bulb Temperature Range {deltaC}
  -16.4,                                  ! Humidity Indicating Conditions at Maximum Dry-Bulb {BasedOnField A3}
  87545,                                  ! Barometric Pressure {Pa}
  4.6,                                    ! Wind Speed {m/s}
  10,                                     ! Wind Direction {deg}
  0,                                      ! Sky Clearness
  0,                                      ! Rain Indicator
  0,                                      ! Snow Indicator
  21,                                     ! Day of Month
  12,                                     ! Month
  WinterDesignDay,                        ! Day Type
  0,                                      ! Daylight Saving Time Indicator
  Dewpoint,                               ! Humidity Indicating Type
  ,                                       ! Humidity Indicating Day Schedule Name
  DefaultMultipliers,                     ! Dry-Bulb Temperature Range Modifier Type
  ,                                       ! Dry-Bulb Temperature Range Modifier Schedule Name
  ASHRAEClearSky;                         ! Solar Model Indicator

OS:ComponentData,
  {04f40578-e618-42e3-9abb-4fe51b4cbba1}, ! Handle
  Component Data 1,                       ! Name
  {5a82d0d0-c3e6-4f13-a6f5-afc65ef9128b}, ! UUID
  {76080f7f-5f7b-41e1-b7cc-f94a29d61ae4}, ! Version UUID
  1366310649,                             ! Creation Timestamp
  1366310649,                             ! Version Timestamp
  {4ea4382f-4476-4590-90ad-fb1f4e84ce2b}; ! Name of Object 1

