
OS:Version,
  {72344c8f-9eb2-4b4d-a62c-b0fb2de2e87a}, ! Handle
  0.9.3;                                  ! Version Identifier

OS:SizingPeriod:DesignDay,
  {ec408e3a-aa89-4219-8ec1-5a0d52d54ddf}, ! Handle
  Estherville Muni Ann Clg 1% Condns Enth=>MDB, ! Name
  28.8,                                   ! Maximum Dry-Bulb Temperature {C}
  11,                                     ! Daily Dry-Bulb Temperature Range {deltaC}
  76200,                                  ! Humidity Indicating Conditions at Maximum Dry-Bulb {BasedOnField A3}
  96600,                                  ! Barometric Pressure {Pa}
  7,                                      ! Wind Speed {m/s}
  180,                                    ! Wind Direction {deg}
  0,                                      ! Sky Clearness
  0,                                      ! Rain Indicator
  0,                                      ! Snow Indicator
  21,                                     ! Day of Month
  7,                                      ! Month
  SummerDesignDay,                        ! Day Type
  0,                                      ! Daylight Saving Time Indicator
  Enthalpy,                               ! Humidity Indicating Type
  ,                                       ! Humidity Indicating Day Schedule Name
  DefaultMultipliers,                     ! Dry-Bulb Temperature Range Modifier Type
  ,                                       ! Dry-Bulb Temperature Range Modifier Schedule Name
  ASHRAETau,                              ! Solar Model Indicator
  ,                                       ! Beam Solar Day Schedule Name
  ,                                       ! Diffuse Solar Day Schedule Name
  0.401,                                  ! ASHRAE Taub {dimensionless}
  2.243;                                  ! ASHRAE Taud {dimensionless}

OS:ComponentData,
  {9fc8f3ae-dcff-4a6a-bf04-8522b946e375}, ! Handle
  Component Data 1,                       ! Name
  {b0a33c51-c42c-46f1-84a0-1b746fe9a2bd}, ! UUID
  {757fe0eb-91a8-4c28-a826-0fd957f24388}, ! Version UUID
  1366307190,                             ! Creation Timestamp
  1366307190,                             ! Version Timestamp
  {ec408e3a-aa89-4219-8ec1-5a0d52d54ddf}; ! Name of Object 1

