
OS:Version,
  {8f7357cf-ec47-4da6-b891-1ed683905bbc}, ! Handle
  0.9.3;                                  ! Version Identifier

OS:SizingPeriod:DesignDay,
  {586ac66f-063e-46b1-bdfd-a4c4968ab504}, ! Handle
  Homer Ann Htg 99% Condns DB,            ! Name
  -15.4,                                  ! Maximum Dry-Bulb Temperature {C}
  0,                                      ! Daily Dry-Bulb Temperature Range {deltaC}
  -15.4,                                  ! Humidity Indicating Conditions at Maximum Dry-Bulb {BasedOnField A3}
  101025,                                 ! Barometric Pressure {Pa}
  3,                                      ! Wind Speed {m/s}
  30,                                     ! Wind Direction {deg}
  0,                                      ! Sky Clearness
  0,                                      ! Rain Indicator
  0,                                      ! Snow Indicator
  21,                                     ! Day of Month
  1,                                      ! Month
  WinterDesignDay,                        ! Day Type
  0,                                      ! Daylight Saving Time Indicator
  Wetbulb,                                ! Humidity Indicating Type
  ,                                       ! Humidity Indicating Day Schedule Name
  DefaultMultipliers,                     ! Dry-Bulb Temperature Range Modifier Type
  ,                                       ! Dry-Bulb Temperature Range Modifier Schedule Name
  ASHRAEClearSky;                         ! Solar Model Indicator

OS:ComponentData,
  {25313fb2-8e27-4ade-a0d8-630897763b2c}, ! Handle
  Component Data 1,                       ! Name
  {fbb7f4eb-6cef-4a04-b3ab-41c9be644aaa}, ! UUID
  {752ccd88-b94e-4e0a-892b-a84ea9867cf0}, ! Version UUID
  1366305301,                             ! Creation Timestamp
  1366305301,                             ! Version Timestamp
  {586ac66f-063e-46b1-bdfd-a4c4968ab504}; ! Name of Object 1

