
OS:Version,
  {1599250c-2989-48c2-9d09-1ff10e198266}, ! Handle
  0.9.3;                                  ! Version Identifier

OS:SizingPeriod:DesignDay,
  {a90a2898-ffc4-4880-995e-f4cc12921860}, ! Handle
  GREENVILLE Ann Clg 2% Condns DP=>MDB,   ! Name
  26.1,                                   ! Maximum Dry-Bulb Temperature {C}
  10.6,                                   ! Daily Dry-Bulb Temperature Range {deltaC}
  22.4,                                   ! Humidity Indicating Conditions at Maximum Dry-Bulb {BasedOnField A3}
  97819,                                  ! Barometric Pressure {Pa}
  3.6,                                    ! Wind Speed {m/s}
  230,                                    ! Wind Direction {deg}
  0,                                      ! Sky Clearness
  0,                                      ! Rain Indicator
  0,                                      ! Snow Indicator
  21,                                     ! Day of Month
  7,                                      ! Month
  SummerDesignDay,                        ! Day Type
  0,                                      ! Daylight Saving Time Indicator
  Dewpoint,                               ! Humidity Indicating Type
  ,                                       ! Humidity Indicating Day Schedule Name
  DefaultMultipliers,                     ! Dry-Bulb Temperature Range Modifier Type
  ,                                       ! Dry-Bulb Temperature Range Modifier Schedule Name
  ASHRAETau,                              ! Solar Model Indicator
  ,                                       ! Beam Solar Day Schedule Name
  ,                                       ! Diffuse Solar Day Schedule Name
  0.545,                                  ! ASHRAE Taub {dimensionless}
  1.796;                                  ! ASHRAE Taud {dimensionless}

OS:ComponentData,
  {79b341ee-51e0-48c0-8dff-fc2175bc8a4b}, ! Handle
  Component Data 1,                       ! Name
  {55b66418-e64c-4cae-8618-0281e783a953}, ! UUID
  {7faab759-9d7b-4483-87b4-cff9391c4a09}, ! Version UUID
  1366310359,                             ! Creation Timestamp
  1366310359,                             ! Version Timestamp
  {a90a2898-ffc4-4880-995e-f4cc12921860}; ! Name of Object 1

