
OS:Version,
  {4c1ff5ba-813c-4b67-af18-bdaef6d4f6f9}, ! Handle
  0.9.3;                                  ! Version Identifier

OS:SizingPeriod:DesignDay,
  {51e5dcd9-19ee-46d4-9ece-d404e46fff48}, ! Handle
  CHATTANOOGA Ann Clg 2% Condns Enth=>MDB, ! Name
  30,                                     ! Maximum Dry-Bulb Temperature {C}
  10.6,                                   ! Daily Dry-Bulb Temperature Range {deltaC}
  74400,                                  ! Humidity Indicating Conditions at Maximum Dry-Bulb {BasedOnField A3}
  98828,                                  ! Barometric Pressure {Pa}
  3.2,                                    ! Wind Speed {m/s}
  280,                                    ! Wind Direction {deg}
  0,                                      ! Sky Clearness
  0,                                      ! Rain Indicator
  0,                                      ! Snow Indicator
  21,                                     ! Day of Month
  7,                                      ! Month
  SummerDesignDay,                        ! Day Type
  0,                                      ! Daylight Saving Time Indicator
  Enthalpy,                               ! Humidity Indicating Type
  ,                                       ! Humidity Indicating Day Schedule Name
  DefaultMultipliers,                     ! Dry-Bulb Temperature Range Modifier Type
  ,                                       ! Dry-Bulb Temperature Range Modifier Schedule Name
  ASHRAETau,                              ! Solar Model Indicator
  ,                                       ! Beam Solar Day Schedule Name
  ,                                       ! Diffuse Solar Day Schedule Name
  0.562,                                  ! ASHRAE Taub {dimensionless}
  1.761;                                  ! ASHRAE Taud {dimensionless}

OS:ComponentData,
  {1a3a87b5-14a8-4920-be7d-62c3a232a7f7}, ! Handle
  Component Data 1,                       ! Name
  {34f2ebfb-e04c-4313-8494-54294f3fc02b}, ! UUID
  {414f43b9-0541-49e0-be1a-359139e6f88b}, ! Version UUID
  1366310494,                             ! Creation Timestamp
  1366310494,                             ! Version Timestamp
  {51e5dcd9-19ee-46d4-9ece-d404e46fff48}; ! Name of Object 1

