
OS:Version,
  {d017d11d-22aa-4f0a-b3dd-f511fb9145ae}, ! Handle
  0.9.3;                                  ! Version Identifier

OS:SizingPeriod:DesignDay,
  {6c6d2d69-670f-4aa5-a3e0-73375dcc6b48}, ! Handle
  ASTORIA Ann Htg 99.6% Condns DB,        ! Name
  -2.9,                                   ! Maximum Dry-Bulb Temperature {C}
  0,                                      ! Daily Dry-Bulb Temperature Range {deltaC}
  -2.9,                                   ! Humidity Indicating Conditions at Maximum Dry-Bulb {BasedOnField A3}
  101241,                                 ! Barometric Pressure {Pa}
  3.4,                                    ! Wind Speed {m/s}
  90,                                     ! Wind Direction {deg}
  0,                                      ! Sky Clearness
  0,                                      ! Rain Indicator
  0,                                      ! Snow Indicator
  21,                                     ! Day of Month
  12,                                     ! Month
  WinterDesignDay,                        ! Day Type
  0,                                      ! Daylight Saving Time Indicator
  Wetbulb,                                ! Humidity Indicating Type
  ,                                       ! Humidity Indicating Day Schedule Name
  DefaultMultipliers,                     ! Dry-Bulb Temperature Range Modifier Type
  ,                                       ! Dry-Bulb Temperature Range Modifier Schedule Name
  ASHRAEClearSky;                         ! Solar Model Indicator

OS:ComponentData,
  {06374cad-b073-47eb-afda-044bea669797}, ! Handle
  Component Data 1,                       ! Name
  {620c3f18-ea27-4f75-b3a1-1166b6290a9e}, ! UUID
  {b2b155e8-de82-44b6-8d68-bd78df70d217}, ! Version UUID
  1366309966,                             ! Creation Timestamp
  1366309966,                             ! Version Timestamp
  {6c6d2d69-670f-4aa5-a3e0-73375dcc6b48}; ! Name of Object 1

