
OS:Version,
  {b39774c7-7899-46eb-a1fc-8dd2e2b3e205}, ! Handle
  0.9.3;                                  ! Version Identifier

OS:SizingPeriod:DesignDay,
  {fb4ec263-d030-459d-8942-a5214110834b}, ! Handle
  Luke Afb Ann Clg .4% Condns WB=>MDB,    ! Name
  35.8,                                   ! Maximum Dry-Bulb Temperature {C}
  14.2,                                   ! Daily Dry-Bulb Temperature Range {deltaC}
  25.2,                                   ! Humidity Indicating Conditions at Maximum Dry-Bulb {BasedOnField A3}
  97411,                                  ! Barometric Pressure {Pa}
  4.9,                                    ! Wind Speed {m/s}
  220,                                    ! Wind Direction {deg}
  0,                                      ! Sky Clearness
  0,                                      ! Rain Indicator
  0,                                      ! Snow Indicator
  21,                                     ! Day of Month
  7,                                      ! Month
  SummerDesignDay,                        ! Day Type
  0,                                      ! Daylight Saving Time Indicator
  Wetbulb,                                ! Humidity Indicating Type
  ,                                       ! Humidity Indicating Day Schedule Name
  DefaultMultipliers,                     ! Dry-Bulb Temperature Range Modifier Type
  ,                                       ! Dry-Bulb Temperature Range Modifier Schedule Name
  ASHRAETau,                              ! Solar Model Indicator
  ,                                       ! Beam Solar Day Schedule Name
  ,                                       ! Diffuse Solar Day Schedule Name
  0.597,                                  ! ASHRAE Taub {dimensionless}
  1.622;                                  ! ASHRAE Taud {dimensionless}

