
OS:Version,
  {f149c36a-6d88-40a3-990d-46a31bf135c2}, ! Handle
  0.9.3;                                  ! Version Identifier

OS:SizingPeriod:DesignDay,
  {9eecf1e6-5587-4ffc-b69b-51aad75c7227}, ! Handle
  Luke Afb Ann Clg .4% Condns WB=>MDB,    ! Name
  35.8,                                   ! Maximum Dry-Bulb Temperature {C}
  14.2,                                   ! Daily Dry-Bulb Temperature Range {deltaC}
  25.2,                                   ! Humidity Indicating Conditions at Maximum Dry-Bulb {BasedOnField A3}
  97411,                                  ! Barometric Pressure {Pa}
  4.9,                                    ! Wind Speed {m/s}
  220,                                    ! Wind Direction {deg}
  0,                                      ! Sky Clearness
  0,                                      ! Rain Indicator
  0,                                      ! Snow Indicator
  21,                                     ! Day of Month
  7,                                      ! Month
  SummerDesignDay,                        ! Day Type
  0,                                      ! Daylight Saving Time Indicator
  Wetbulb,                                ! Humidity Indicating Type
  ,                                       ! Humidity Indicating Day Schedule Name
  DefaultMultipliers,                     ! Dry-Bulb Temperature Range Modifier Type
  ,                                       ! Dry-Bulb Temperature Range Modifier Schedule Name
  ASHRAETau,                              ! Solar Model Indicator
  ,                                       ! Beam Solar Day Schedule Name
  ,                                       ! Diffuse Solar Day Schedule Name
  0.597,                                  ! ASHRAE Taub {dimensionless}
  1.622;                                  ! ASHRAE Taud {dimensionless}

OS:ComponentData,
  {52844ab8-7e38-488d-ae49-cd56ab228aef}, ! Handle
  Component Data 1,                       ! Name
  {14fcb51e-c431-4dbb-be84-014ff4f9ad98}, ! UUID
  {6840ea76-7a56-4cc4-860e-3f1c4584a3a0}, ! Version UUID
  1366306284,                             ! Creation Timestamp
  1366306284,                             ! Version Timestamp
  {9eecf1e6-5587-4ffc-b69b-51aad75c7227}; ! Name of Object 1

