
OS:Version,
  {00c887ac-712a-47da-8beb-b0831f6278dc}, ! Handle
  0.9.3;                                  ! Version Identifier

OS:SizingPeriod:DesignDay,
  {97b78839-146c-4edb-924c-6f7009622688}, ! Handle
  La Crosse Municipal Arpt Ann Hum_n 99.6% Condns DP=>MCDB, ! Name
  -24,                                    ! Maximum Dry-Bulb Temperature {C}
  0,                                      ! Daily Dry-Bulb Temperature Range {deltaC}
  -29.5,                                  ! Humidity Indicating Conditions at Maximum Dry-Bulb {BasedOnField A3}
  98969,                                  ! Barometric Pressure {Pa}
  3.4,                                    ! Wind Speed {m/s}
  330,                                    ! Wind Direction {deg}
  0,                                      ! Sky Clearness
  0,                                      ! Rain Indicator
  0,                                      ! Snow Indicator
  21,                                     ! Day of Month
  1,                                      ! Month
  WinterDesignDay,                        ! Day Type
  0,                                      ! Daylight Saving Time Indicator
  Dewpoint,                               ! Humidity Indicating Type
  ,                                       ! Humidity Indicating Day Schedule Name
  DefaultMultipliers,                     ! Dry-Bulb Temperature Range Modifier Type
  ,                                       ! Dry-Bulb Temperature Range Modifier Schedule Name
  ASHRAEClearSky;                         ! Solar Model Indicator

OS:ComponentData,
  {68f45fe7-62db-4b62-af79-5c9f7fc01ab6}, ! Handle
  Component Data 1,                       ! Name
  {a5490d3b-5e78-4f33-9e5a-62a2a71bcdb5}, ! UUID
  {1ad94077-e3d4-4477-895d-88d817839570}, ! Version UUID
  1366311513,                             ! Creation Timestamp
  1366311513,                             ! Version Timestamp
  {97b78839-146c-4edb-924c-6f7009622688}; ! Name of Object 1

