
OS:Version,
  {a0758a51-b232-4c65-941b-e5eca5ea4d5b}, ! Handle
  0.9.3;                                  ! Version Identifier

OS:SizingPeriod:DesignDay,
  {991a628c-bc4b-44c4-87ba-430d346f4454}, ! Handle
  Beaufort Mcas Ann Htg Wind 99.6% Condns WS=>MCDB, ! Name
  10.3,                                   ! Maximum Dry-Bulb Temperature {C}
  0,                                      ! Daily Dry-Bulb Temperature Range {deltaC}
  10.3,                                   ! Humidity Indicating Conditions at Maximum Dry-Bulb {BasedOnField A3}
  101205,                                 ! Barometric Pressure {Pa}
  9.4,                                    ! Wind Speed {m/s}
  350,                                    ! Wind Direction {deg}
  0,                                      ! Sky Clearness
  0,                                      ! Rain Indicator
  0,                                      ! Snow Indicator
  21,                                     ! Day of Month
  1,                                      ! Month
  WinterDesignDay,                        ! Day Type
  0,                                      ! Daylight Saving Time Indicator
  Wetbulb,                                ! Humidity Indicating Type
  ,                                       ! Humidity Indicating Day Schedule Name
  DefaultMultipliers,                     ! Dry-Bulb Temperature Range Modifier Type
  ,                                       ! Dry-Bulb Temperature Range Modifier Schedule Name
  ASHRAEClearSky;                         ! Solar Model Indicator

OS:ComponentData,
  {6756c523-1ead-4ff5-a5da-99fd9d68e18f}, ! Handle
  Component Data 1,                       ! Name
  {a73347eb-43e0-4ac9-80ff-bff5497395b1}, ! UUID
  {eda3b438-ba8f-4226-aa05-6f0ae0dab450}, ! Version UUID
  1366310316,                             ! Creation Timestamp
  1366310316,                             ! Version Timestamp
  {991a628c-bc4b-44c4-87ba-430d346f4454}; ! Name of Object 1

