
OS:Version,
  {40618df3-7789-4e49-bf71-7a1b69aed043}, ! Handle
  0.9.3;                                  ! Version Identifier

OS:SizingPeriod:DesignDay,
  {5acc6266-97ed-41cb-ba94-8fa9ec122863}, ! Handle
  Greensboro Ann Clg .4% Condns Enth=>MDB, ! Name
  31,                                     ! Maximum Dry-Bulb Temperature {C}
  9.9,                                    ! Daily Dry-Bulb Temperature Range {deltaC}
  76800,                                  ! Humidity Indicating Conditions at Maximum Dry-Bulb {BasedOnField A3}
  98123,                                  ! Barometric Pressure {Pa}
  3.4,                                    ! Wind Speed {m/s}
  230,                                    ! Wind Direction {deg}
  0,                                      ! Sky Clearness
  0,                                      ! Rain Indicator
  0,                                      ! Snow Indicator
  21,                                     ! Day of Month
  7,                                      ! Month
  SummerDesignDay,                        ! Day Type
  0,                                      ! Daylight Saving Time Indicator
  Enthalpy,                               ! Humidity Indicating Type
  ,                                       ! Humidity Indicating Day Schedule Name
  DefaultMultipliers,                     ! Dry-Bulb Temperature Range Modifier Type
  ,                                       ! Dry-Bulb Temperature Range Modifier Schedule Name
  ASHRAETau,                              ! Solar Model Indicator
  ,                                       ! Beam Solar Day Schedule Name
  ,                                       ! Diffuse Solar Day Schedule Name
  0.557,                                  ! ASHRAE Taub {dimensionless}
  1.757;                                  ! ASHRAE Taud {dimensionless}

OS:ComponentData,
  {3a89dba6-4be8-4711-93f3-4ae9c889e122}, ! Handle
  Component Data 1,                       ! Name
  {12479132-9880-4f68-a1c3-b95783e24321}, ! UUID
  {c33447ce-fd2c-4185-a949-5f5e36904dbd}, ! Version UUID
  1366308929,                             ! Creation Timestamp
  1366308929,                             ! Version Timestamp
  {5acc6266-97ed-41cb-ba94-8fa9ec122863}; ! Name of Object 1

