
OS:Version,
  {85a18279-49e5-4fcf-9e4b-bb8b4d53f340}, ! Handle
  0.9.3;                                  ! Version Identifier

OS:SizingPeriod:DesignDay,
  {e39fbda3-a458-41d2-b443-9ad002ef143a}, ! Handle
  Del Rio/Intl Ap Ann Clg 1% Condns WB=>MDB, ! Name
  31.5,                                   ! Maximum Dry-Bulb Temperature {C}
  11.4,                                   ! Daily Dry-Bulb Temperature Range {deltaC}
  24.8,                                   ! Humidity Indicating Conditions at Maximum Dry-Bulb {BasedOnField A3}
  97458,                                  ! Barometric Pressure {Pa}
  4.8,                                    ! Wind Speed {m/s}
  140,                                    ! Wind Direction {deg}
  0,                                      ! Sky Clearness
  0,                                      ! Rain Indicator
  0,                                      ! Snow Indicator
  21,                                     ! Day of Month
  7,                                      ! Month
  SummerDesignDay,                        ! Day Type
  0,                                      ! Daylight Saving Time Indicator
  Wetbulb,                                ! Humidity Indicating Type
  ,                                       ! Humidity Indicating Day Schedule Name
  DefaultMultipliers,                     ! Dry-Bulb Temperature Range Modifier Type
  ,                                       ! Dry-Bulb Temperature Range Modifier Schedule Name
  ASHRAETau,                              ! Solar Model Indicator
  ,                                       ! Beam Solar Day Schedule Name
  ,                                       ! Diffuse Solar Day Schedule Name
  0.48,                                   ! ASHRAE Taub {dimensionless}
  1.993;                                  ! ASHRAE Taud {dimensionless}

OS:ComponentData,
  {33cc895e-827c-43ab-9804-ce9c3a6e090a}, ! Handle
  Component Data 1,                       ! Name
  {6ac46596-771d-4b8c-9e85-32d09758823b}, ! UUID
  {f6652083-2b5c-4325-8e7a-abd4d2a47fe6}, ! Version UUID
  1366310672,                             ! Creation Timestamp
  1366310672,                             ! Version Timestamp
  {e39fbda3-a458-41d2-b443-9ad002ef143a}; ! Name of Object 1

