
OS:Version,
  {929ec762-2d0c-46ef-8e3f-8a1e95d12d60}, ! Handle
  0.9.3;                                  ! Version Identifier

OS:SizingPeriod:DesignDay,
  {cfbaf19f-efbf-486c-9491-f3c89c958c0c}, ! Handle
  Durango La Plata Co Ann Clg 1% Condns DP=>MDB, ! Name
  17.2,                                   ! Maximum Dry-Bulb Temperature {C}
  17.6,                                   ! Daily Dry-Bulb Temperature Range {deltaC}
  13.7,                                   ! Humidity Indicating Conditions at Maximum Dry-Bulb {BasedOnField A3}
  79121,                                  ! Barometric Pressure {Pa}
  4.9,                                    ! Wind Speed {m/s}
  250,                                    ! Wind Direction {deg}
  0,                                      ! Sky Clearness
  0,                                      ! Rain Indicator
  0,                                      ! Snow Indicator
  21,                                     ! Day of Month
  7,                                      ! Month
  SummerDesignDay,                        ! Day Type
  0,                                      ! Daylight Saving Time Indicator
  Dewpoint,                               ! Humidity Indicating Type
  ,                                       ! Humidity Indicating Day Schedule Name
  DefaultMultipliers,                     ! Dry-Bulb Temperature Range Modifier Type
  ,                                       ! Dry-Bulb Temperature Range Modifier Schedule Name
  ASHRAETau,                              ! Solar Model Indicator
  ,                                       ! Beam Solar Day Schedule Name
  ,                                       ! Diffuse Solar Day Schedule Name
  0.396,                                  ! ASHRAE Taub {dimensionless}
  2.134;                                  ! ASHRAE Taud {dimensionless}

OS:ComponentData,
  {73e1f728-05ce-43d5-a9f0-8c63bc16cf14}, ! Handle
  Component Data 1,                       ! Name
  {73009f0f-ccf9-4d9d-b252-d7b379139753}, ! UUID
  {041e603e-cadc-44b2-a4fa-16877cfc89f5}, ! Version UUID
  1366306681,                             ! Creation Timestamp
  1366306681,                             ! Version Timestamp
  {cfbaf19f-efbf-486c-9491-f3c89c958c0c}; ! Name of Object 1

