
OS:Version,
  {f1d6df0c-c6a2-4c89-a68d-d44dbe1a6f43}, ! Handle
  0.9.3;                                  ! Version Identifier

OS:SizingPeriod:DesignDay,
  {f08fad05-43f1-4837-80ed-95a0e3f5cb7e}, ! Handle
  Lake Hood Seaplane Ann Clg .4% Condns Enth=>MDB, ! Name
  22.2,                                   ! Maximum Dry-Bulb Temperature {C}
  6.8,                                    ! Daily Dry-Bulb Temperature Range {deltaC}
  45200,                                  ! Humidity Indicating Conditions at Maximum Dry-Bulb {BasedOnField A3}
  101061,                                 ! Barometric Pressure {Pa}
  2.9,                                    ! Wind Speed {m/s}
  270,                                    ! Wind Direction {deg}
  0,                                      ! Sky Clearness
  0,                                      ! Rain Indicator
  0,                                      ! Snow Indicator
  21,                                     ! Day of Month
  7,                                      ! Month
  SummerDesignDay,                        ! Day Type
  0,                                      ! Daylight Saving Time Indicator
  Enthalpy,                               ! Humidity Indicating Type
  ,                                       ! Humidity Indicating Day Schedule Name
  DefaultMultipliers,                     ! Dry-Bulb Temperature Range Modifier Type
  ,                                       ! Dry-Bulb Temperature Range Modifier Schedule Name
  ASHRAETau,                              ! Solar Model Indicator
  ,                                       ! Beam Solar Day Schedule Name
  ,                                       ! Diffuse Solar Day Schedule Name
  0.388,                                  ! ASHRAE Taub {dimensionless}
  2.167;                                  ! ASHRAE Taud {dimensionless}

OS:ComponentData,
  {3b9bddde-e205-4e57-a278-f754e75360a1}, ! Handle
  Component Data 1,                       ! Name
  {e029b01b-f43f-4495-8226-7123e0800b34}, ! UUID
  {0dbb1c7e-eb35-46d2-be3b-1e240060735c}, ! Version UUID
  1366304696,                             ! Creation Timestamp
  1366304696,                             ! Version Timestamp
  {f08fad05-43f1-4837-80ed-95a0e3f5cb7e}; ! Name of Object 1

