
OS:Version,
  {805f4b21-d42b-4710-94ee-9adcd8b85681}, ! Handle
  0.9.3;                                  ! Version Identifier

OS:SizingPeriod:DesignDay,
  {a10c72fc-c782-4606-b920-a66dbe551e11}, ! Handle
  Evansville Regional Ap Ann Clg 2% Condns WB=>MDB, ! Name
  30.2,                                   ! Maximum Dry-Bulb Temperature {C}
  10.6,                                   ! Daily Dry-Bulb Temperature Range {deltaC}
  25,                                     ! Humidity Indicating Conditions at Maximum Dry-Bulb {BasedOnField A3}
  99939,                                  ! Barometric Pressure {Pa}
  3.7,                                    ! Wind Speed {m/s}
  240,                                    ! Wind Direction {deg}
  0,                                      ! Sky Clearness
  0,                                      ! Rain Indicator
  0,                                      ! Snow Indicator
  21,                                     ! Day of Month
  7,                                      ! Month
  SummerDesignDay,                        ! Day Type
  0,                                      ! Daylight Saving Time Indicator
  Wetbulb,                                ! Humidity Indicating Type
  ,                                       ! Humidity Indicating Day Schedule Name
  DefaultMultipliers,                     ! Dry-Bulb Temperature Range Modifier Type
  ,                                       ! Dry-Bulb Temperature Range Modifier Schedule Name
  ASHRAETau,                              ! Solar Model Indicator
  ,                                       ! Beam Solar Day Schedule Name
  ,                                       ! Diffuse Solar Day Schedule Name
  0.508,                                  ! ASHRAE Taub {dimensionless}
  1.881;                                  ! ASHRAE Taud {dimensionless}

OS:ComponentData,
  {a0b9cc72-e2be-4731-b2a1-20bf78f5a487}, ! Handle
  Component Data 1,                       ! Name
  {122f6e17-4152-4916-b8c5-c54588acb18c}, ! UUID
  {1fb2d790-8a3a-4131-8734-1d366f6a9a47}, ! Version UUID
  1366307433,                             ! Creation Timestamp
  1366307433,                             ! Version Timestamp
  {a10c72fc-c782-4606-b920-a66dbe551e11}; ! Name of Object 1

