
OS:Version,
  {6044eeda-3443-455c-827b-f7fb89066107}, ! Handle
  0.9.3;                                  ! Version Identifier

OS:SizingPeriod:DesignDay,
  {df7db16c-7c7f-405f-9be5-7f5a5be1bc31}, ! Handle
  Indianapolis Ann Htg 99.6% Condns DB,   ! Name
  -18,                                    ! Maximum Dry-Bulb Temperature {C}
  0,                                      ! Daily Dry-Bulb Temperature Range {deltaC}
  -18,                                    ! Humidity Indicating Conditions at Maximum Dry-Bulb {BasedOnField A3}
  98404,                                  ! Barometric Pressure {Pa}
  4.5,                                    ! Wind Speed {m/s}
  270,                                    ! Wind Direction {deg}
  0,                                      ! Sky Clearness
  0,                                      ! Rain Indicator
  0,                                      ! Snow Indicator
  21,                                     ! Day of Month
  1,                                      ! Month
  WinterDesignDay,                        ! Day Type
  0,                                      ! Daylight Saving Time Indicator
  Wetbulb,                                ! Humidity Indicating Type
  ,                                       ! Humidity Indicating Day Schedule Name
  DefaultMultipliers,                     ! Dry-Bulb Temperature Range Modifier Type
  ,                                       ! Dry-Bulb Temperature Range Modifier Schedule Name
  ASHRAEClearSky;                         ! Solar Model Indicator

OS:ComponentData,
  {4653d878-df3e-47b9-a089-dfc584c7bcc3}, ! Handle
  Component Data 1,                       ! Name
  {c147e0b9-7013-489c-8978-675d16cadd3a}, ! UUID
  {e0b87722-0676-41c2-9d1a-6e7e8331f781}, ! Version UUID
  1366307462,                             ! Creation Timestamp
  1366307462,                             ! Version Timestamp
  {df7db16c-7c7f-405f-9be5-7f5a5be1bc31}; ! Name of Object 1

