
OS:Version,
  {25dad78b-543d-4c83-8bc9-64e8ce7b2dc2}, ! Handle
  0.9.3;                                  ! Version Identifier

OS:SizingPeriod:DesignDay,
  {e22d352d-f39d-469d-8616-8be3f83de5f6}, ! Handle
  Lewistown Municipal Arpt Ann Hum_n 99.6% Condns DP=>MCDB, ! Name
  -25.5,                                  ! Maximum Dry-Bulb Temperature {C}
  0,                                      ! Daily Dry-Bulb Temperature Range {deltaC}
  -31.9,                                  ! Humidity Indicating Conditions at Maximum Dry-Bulb {BasedOnField A3}
  87044,                                  ! Barometric Pressure {Pa}
  3,                                      ! Wind Speed {m/s}
  120,                                    ! Wind Direction {deg}
  0,                                      ! Sky Clearness
  0,                                      ! Rain Indicator
  0,                                      ! Snow Indicator
  21,                                     ! Day of Month
  12,                                     ! Month
  WinterDesignDay,                        ! Day Type
  0,                                      ! Daylight Saving Time Indicator
  Dewpoint,                               ! Humidity Indicating Type
  ,                                       ! Humidity Indicating Day Schedule Name
  DefaultMultipliers,                     ! Dry-Bulb Temperature Range Modifier Type
  ,                                       ! Dry-Bulb Temperature Range Modifier Schedule Name
  ASHRAEClearSky;                         ! Solar Model Indicator

OS:ComponentData,
  {44daf64f-3a62-4c3e-aeba-83402c8285f8}, ! Handle
  Component Data 1,                       ! Name
  {d209f942-29bc-4ea4-b959-a2c4b3dc22dd}, ! UUID
  {5b4ffa20-5658-4cdf-87dd-bf00f94033ef}, ! Version UUID
  1366308820,                             ! Creation Timestamp
  1366308820,                             ! Version Timestamp
  {e22d352d-f39d-469d-8616-8be3f83de5f6}; ! Name of Object 1

