
OS:Version,
  {16ef9bc3-8b53-4807-85ad-5f1a4fcb415d}, ! Handle
  0.9.3;                                  ! Version Identifier

OS:SizingPeriod:DesignDay,
  {8dcd411f-fa68-4f48-a9c3-826e061b5066}, ! Handle
  Elko Ann Clg .4% Condns WB=>MDB,        ! Name
  29.8,                                   ! Maximum Dry-Bulb Temperature {C}
  21.8,                                   ! Daily Dry-Bulb Temperature Range {deltaC}
  17.4,                                   ! Humidity Indicating Conditions at Maximum Dry-Bulb {BasedOnField A3}
  83884,                                  ! Barometric Pressure {Pa}
  4.1,                                    ! Wind Speed {m/s}
  240,                                    ! Wind Direction {deg}
  0,                                      ! Sky Clearness
  0,                                      ! Rain Indicator
  0,                                      ! Snow Indicator
  21,                                     ! Day of Month
  7,                                      ! Month
  SummerDesignDay,                        ! Day Type
  0,                                      ! Daylight Saving Time Indicator
  Wetbulb,                                ! Humidity Indicating Type
  ,                                       ! Humidity Indicating Day Schedule Name
  DefaultMultipliers,                     ! Dry-Bulb Temperature Range Modifier Type
  ,                                       ! Dry-Bulb Temperature Range Modifier Schedule Name
  ASHRAETau,                              ! Solar Model Indicator
  ,                                       ! Beam Solar Day Schedule Name
  ,                                       ! Diffuse Solar Day Schedule Name
  0.446,                                  ! ASHRAE Taub {dimensionless}
  1.888;                                  ! ASHRAE Taud {dimensionless}

OS:ComponentData,
  {06401f3e-56c2-4fa1-be9e-e1ace3c16a7c}, ! Handle
  Component Data 1,                       ! Name
  {ca1e4f52-f4f0-41f5-a827-d241fd022c8f}, ! UUID
  {796d2dd4-b57a-42d1-bc2a-a62dc1246990}, ! Version UUID
  1366309462,                             ! Creation Timestamp
  1366309462,                             ! Version Timestamp
  {8dcd411f-fa68-4f48-a9c3-826e061b5066}; ! Name of Object 1

