
OS:Version,
  {f0a03c1a-289e-4bea-b745-6b7431f02d80}, ! Handle
  0.9.3;                                  ! Version Identifier

OS:SizingPeriod:DesignDay,
  {00bf8842-6455-4c56-b568-01c04687b64b}, ! Handle
  Houston Bush Intercontinental Ann Htg Wind 99.6% Condns WS=>MCDB, ! Name
  13.9,                                   ! Maximum Dry-Bulb Temperature {C}
  0,                                      ! Daily Dry-Bulb Temperature Range {deltaC}
  13.9,                                   ! Humidity Indicating Conditions at Maximum Dry-Bulb {BasedOnField A3}
  100977,                                 ! Barometric Pressure {Pa}
  9.9,                                    ! Wind Speed {m/s}
  0,                                      ! Wind Direction {deg}
  0,                                      ! Sky Clearness
  0,                                      ! Rain Indicator
  0,                                      ! Snow Indicator
  21,                                     ! Day of Month
  1,                                      ! Month
  WinterDesignDay,                        ! Day Type
  0,                                      ! Daylight Saving Time Indicator
  Wetbulb,                                ! Humidity Indicating Type
  ,                                       ! Humidity Indicating Day Schedule Name
  DefaultMultipliers,                     ! Dry-Bulb Temperature Range Modifier Type
  ,                                       ! Dry-Bulb Temperature Range Modifier Schedule Name
  ASHRAEClearSky;                         ! Solar Model Indicator

OS:ComponentData,
  {74411a19-de9e-42d6-a35a-d8937e2958ad}, ! Handle
  Component Data 1,                       ! Name
  {5eb5f1a3-57dd-48e3-b1e7-53b6784f418d}, ! UUID
  {8d37867a-ed13-4c05-a195-11058dc8286f}, ! Version UUID
  1366310742,                             ! Creation Timestamp
  1366310742,                             ! Version Timestamp
  {00bf8842-6455-4c56-b568-01c04687b64b}; ! Name of Object 1

