
OS:Version,
  {d19f0ef2-e408-4c3e-a7ac-239bf908ef21}, ! Handle
  0.9.3;                                  ! Version Identifier

OS:SizingPeriod:DesignDay,
  {559d9966-8083-43a1-86c5-a7a3ae4fbb00}, ! Handle
  Goodland Renner Field Ann Clg .4% Condns Enth=>MDB, ! Name
  30.1,                                   ! Maximum Dry-Bulb Temperature {C}
  15,                                     ! Daily Dry-Bulb Temperature Range {deltaC}
  68700,                                  ! Humidity Indicating Conditions at Maximum Dry-Bulb {BasedOnField A3}
  88671,                                  ! Barometric Pressure {Pa}
  6,                                      ! Wind Speed {m/s}
  160,                                    ! Wind Direction {deg}
  0,                                      ! Sky Clearness
  0,                                      ! Rain Indicator
  0,                                      ! Snow Indicator
  21,                                     ! Day of Month
  7,                                      ! Month
  SummerDesignDay,                        ! Day Type
  0,                                      ! Daylight Saving Time Indicator
  Enthalpy,                               ! Humidity Indicating Type
  ,                                       ! Humidity Indicating Day Schedule Name
  DefaultMultipliers,                     ! Dry-Bulb Temperature Range Modifier Type
  ,                                       ! Dry-Bulb Temperature Range Modifier Schedule Name
  ASHRAETau,                              ! Solar Model Indicator
  ,                                       ! Beam Solar Day Schedule Name
  ,                                       ! Diffuse Solar Day Schedule Name
  0.421,                                  ! ASHRAE Taub {dimensionless}
  2.065;                                  ! ASHRAE Taud {dimensionless}

OS:ComponentData,
  {4da6f577-b679-47fb-82ff-c688c91f0564}, ! Handle
  Component Data 1,                       ! Name
  {a1e3018c-bf27-4317-a4bf-d12a003bce0d}, ! UUID
  {f3e6bf29-6c97-413e-a704-5525a7221ab1}, ! Version UUID
  1366307535,                             ! Creation Timestamp
  1366307535,                             ! Version Timestamp
  {559d9966-8083-43a1-86c5-a7a3ae4fbb00}; ! Name of Object 1

