
OS:Version,
  {4dc787bb-2ca8-4ca4-a557-e1a5d3a834dc}, ! Handle
  0.9.3;                                  ! Version Identifier

OS:SizingPeriod:DesignDay,
  {8ead70e1-707d-4369-9706-fce086abf329}, ! Handle
  ERIE Ann Clg 1% Condns WB=>MDB,         ! Name
  27.2,                                   ! Maximum Dry-Bulb Temperature {C}
  8.3,                                    ! Daily Dry-Bulb Temperature Range {deltaC}
  23.2,                                   ! Humidity Indicating Conditions at Maximum Dry-Bulb {BasedOnField A3}
  98651,                                  ! Barometric Pressure {Pa}
  5,                                      ! Wind Speed {m/s}
  260,                                    ! Wind Direction {deg}
  0,                                      ! Sky Clearness
  0,                                      ! Rain Indicator
  0,                                      ! Snow Indicator
  21,                                     ! Day of Month
  7,                                      ! Month
  SummerDesignDay,                        ! Day Type
  0,                                      ! Daylight Saving Time Indicator
  Wetbulb,                                ! Humidity Indicating Type
  ,                                       ! Humidity Indicating Day Schedule Name
  DefaultMultipliers,                     ! Dry-Bulb Temperature Range Modifier Type
  ,                                       ! Dry-Bulb Temperature Range Modifier Schedule Name
  ASHRAETau,                              ! Solar Model Indicator
  ,                                       ! Beam Solar Day Schedule Name
  ,                                       ! Diffuse Solar Day Schedule Name
  0.455,                                  ! ASHRAE Taub {dimensionless}
  2.041;                                  ! ASHRAE Taud {dimensionless}

OS:ComponentData,
  {fec34485-f691-4173-8dd3-0e209c77c271}, ! Handle
  Component Data 1,                       ! Name
  {d8c895b1-34ce-404c-bb7e-c92402ac6e05}, ! UUID
  {3fe92bf1-28b2-49e0-b297-af1df788a417}, ! Version UUID
  1366310165,                             ! Creation Timestamp
  1366310165,                             ! Version Timestamp
  {8ead70e1-707d-4369-9706-fce086abf329}; ! Name of Object 1

