
OS:Version,
  {da7944b1-5876-44bf-90c6-0e6d8384fdb0}, ! Handle
  0.9.3;                                  ! Version Identifier

OS:SizingPeriod:DesignDay,
  {c5a26cc9-1eca-4e3f-9bd2-3de8ddeac7a8}, ! Handle
  Huron Regional Arpt Ann Clg .4% Condns DB=>MWB, ! Name
  34.7,                                   ! Maximum Dry-Bulb Temperature {C}
  12.7,                                   ! Daily Dry-Bulb Temperature Range {deltaC}
  23.3,                                   ! Humidity Indicating Conditions at Maximum Dry-Bulb {BasedOnField A3}
  96727,                                  ! Barometric Pressure {Pa}
  6,                                      ! Wind Speed {m/s}
  180,                                    ! Wind Direction {deg}
  0,                                      ! Sky Clearness
  0,                                      ! Rain Indicator
  0,                                      ! Snow Indicator
  21,                                     ! Day of Month
  7,                                      ! Month
  SummerDesignDay,                        ! Day Type
  0,                                      ! Daylight Saving Time Indicator
  Wetbulb,                                ! Humidity Indicating Type
  ,                                       ! Humidity Indicating Day Schedule Name
  DefaultMultipliers,                     ! Dry-Bulb Temperature Range Modifier Type
  ,                                       ! Dry-Bulb Temperature Range Modifier Schedule Name
  ASHRAETau,                              ! Solar Model Indicator
  ,                                       ! Beam Solar Day Schedule Name
  ,                                       ! Diffuse Solar Day Schedule Name
  0.398,                                  ! ASHRAE Taub {dimensionless}
  2.269;                                  ! ASHRAE Taud {dimensionless}

OS:ComponentData,
  {2c88cccf-1b18-4b19-9c94-acb265cb57bc}, ! Handle
  Component Data 1,                       ! Name
  {95f095fa-46fd-48cc-b8af-f072c4897643}, ! UUID
  {bf656f9d-7bf2-4bde-ab6b-a616741f83a1}, ! Version UUID
  1366310407,                             ! Creation Timestamp
  1366310407,                             ! Version Timestamp
  {c5a26cc9-1eca-4e3f-9bd2-3de8ddeac7a8}; ! Name of Object 1

