
OS:Version,
  {85f01ff9-9f8d-40a4-90b3-8ab989acf942}, ! Handle
  0.9.3;                                  ! Version Identifier

OS:SizingPeriod:DesignDay,
  {806dd95b-a842-4dc6-8794-28da4467eb5c}, ! Handle
  England Afb Ann Clg 1% Condns Enth=>MDB, ! Name
  31.8,                                   ! Maximum Dry-Bulb Temperature {C}
  10.3,                                   ! Daily Dry-Bulb Temperature Range {deltaC}
  82600,                                  ! Humidity Indicating Conditions at Maximum Dry-Bulb {BasedOnField A3}
  101001,                                 ! Barometric Pressure {Pa}
  2.5,                                    ! Wind Speed {m/s}
  0,                                      ! Wind Direction {deg}
  0,                                      ! Sky Clearness
  0,                                      ! Rain Indicator
  0,                                      ! Snow Indicator
  21,                                     ! Day of Month
  7,                                      ! Month
  SummerDesignDay,                        ! Day Type
  0,                                      ! Daylight Saving Time Indicator
  Enthalpy,                               ! Humidity Indicating Type
  ,                                       ! Humidity Indicating Day Schedule Name
  DefaultMultipliers,                     ! Dry-Bulb Temperature Range Modifier Type
  ,                                       ! Dry-Bulb Temperature Range Modifier Schedule Name
  ASHRAETau,                              ! Solar Model Indicator
  ,                                       ! Beam Solar Day Schedule Name
  ,                                       ! Diffuse Solar Day Schedule Name
  0.52,                                   ! ASHRAE Taub {dimensionless}
  1.911;                                  ! ASHRAE Taud {dimensionless}

OS:ComponentData,
  {65aca7df-a04a-4c2a-82d1-fcef6331bcc4}, ! Handle
  Component Data 1,                       ! Name
  {4ff0557f-4faa-493e-b778-b56db362db86}, ! UUID
  {bfc2241b-3cb3-4337-b0c9-c3ddd7be1efe}, ! Version UUID
  1366307693,                             ! Creation Timestamp
  1366307693,                             ! Version Timestamp
  {806dd95b-a842-4dc6-8794-28da4467eb5c}; ! Name of Object 1

