
OS:Version,
  {7e8cce27-47aa-4268-9f0d-7f16e3d2b56b}, ! Handle
  0.9.3;                                  ! Version Identifier

OS:SizingPeriod:DesignDay,
  {3b678dfd-75e1-45c2-be56-be0552e9a633}, ! Handle
  Grand Rapids Ann Clg 2% Condns DP=>MDB, ! Name
  25.3,                                   ! Maximum Dry-Bulb Temperature {C}
  11.1,                                   ! Daily Dry-Bulb Temperature Range {deltaC}
  21.2,                                   ! Humidity Indicating Conditions at Maximum Dry-Bulb {BasedOnField A3}
  98416,                                  ! Barometric Pressure {Pa}
  5.8,                                    ! Wind Speed {m/s}
  240,                                    ! Wind Direction {deg}
  0,                                      ! Sky Clearness
  0,                                      ! Rain Indicator
  0,                                      ! Snow Indicator
  21,                                     ! Day of Month
  7,                                      ! Month
  SummerDesignDay,                        ! Day Type
  0,                                      ! Daylight Saving Time Indicator
  Dewpoint,                               ! Humidity Indicating Type
  ,                                       ! Humidity Indicating Day Schedule Name
  DefaultMultipliers,                     ! Dry-Bulb Temperature Range Modifier Type
  ,                                       ! Dry-Bulb Temperature Range Modifier Schedule Name
  ASHRAETau,                              ! Solar Model Indicator
  ,                                       ! Beam Solar Day Schedule Name
  ,                                       ! Diffuse Solar Day Schedule Name
  0.424,                                  ! ASHRAE Taub {dimensionless}
  2.173;                                  ! ASHRAE Taud {dimensionless}

OS:ComponentData,
  {c46b62cf-9898-4f6f-b40d-560243a906d5}, ! Handle
  Component Data 1,                       ! Name
  {f8892482-b933-4f3c-b258-82bde4a8b915}, ! UUID
  {3f2ad3bf-4d79-4cf4-ac71-ca769d388ac4}, ! Version UUID
  1366308011,                             ! Creation Timestamp
  1366308011,                             ! Version Timestamp
  {3b678dfd-75e1-45c2-be56-be0552e9a633}; ! Name of Object 1

