
OS:Version,
  {a9fda37a-d413-489b-9eb6-3f4e6c2824ab}, ! Handle
  0.9.3;                                  ! Version Identifier

OS:SizingPeriod:DesignDay,
  {54c36f13-9aba-4f43-b11b-713db2c31757}, ! Handle
  Atlanta Hartsfield Intl Ap Ann Clg 1% Condns WB=>MDB, ! Name
  30.3,                                   ! Maximum Dry-Bulb Temperature {C}
  9.5,                                    ! Daily Dry-Bulb Temperature Range {deltaC}
  24.5,                                   ! Humidity Indicating Conditions at Maximum Dry-Bulb {BasedOnField A3}
  97679,                                  ! Barometric Pressure {Pa}
  4,                                      ! Wind Speed {m/s}
  300,                                    ! Wind Direction {deg}
  0,                                      ! Sky Clearness
  0,                                      ! Rain Indicator
  0,                                      ! Snow Indicator
  21,                                     ! Day of Month
  7,                                      ! Month
  SummerDesignDay,                        ! Day Type
  0,                                      ! Daylight Saving Time Indicator
  Wetbulb,                                ! Humidity Indicating Type
  ,                                       ! Humidity Indicating Day Schedule Name
  DefaultMultipliers,                     ! Dry-Bulb Temperature Range Modifier Type
  ,                                       ! Dry-Bulb Temperature Range Modifier Schedule Name
  ASHRAETau,                              ! Solar Model Indicator
  ,                                       ! Beam Solar Day Schedule Name
  ,                                       ! Diffuse Solar Day Schedule Name
  0.556,                                  ! ASHRAE Taub {dimensionless}
  1.779;                                  ! ASHRAE Taud {dimensionless}

OS:ComponentData,
  {e80f2535-be61-45e6-b84c-09d805aec129}, ! Handle
  Component Data 1,                       ! Name
  {1b92f3c5-1c5c-4955-a9f8-7cfdc31cb1db}, ! UUID
  {b77d4cd8-34a0-40be-a770-bc2aca0a32ff}, ! Version UUID
  1366306978,                             ! Creation Timestamp
  1366306978,                             ! Version Timestamp
  {54c36f13-9aba-4f43-b11b-713db2c31757}; ! Name of Object 1

