
OS:Version,
  {d7ece3bb-e785-43a1-829f-2ee48e6d4718}, ! Handle
  0.9.3;                                  ! Version Identifier

OS:SizingPeriod:DesignDay,
  {9cf43cea-d8c7-418c-81f5-33f7ed3d5fcb}, ! Handle
  Fort Knox Godman Aaf Ann Clg 1% Condns DP=>MDB, ! Name
  28.1,                                   ! Maximum Dry-Bulb Temperature {C}
  10.7,                                   ! Daily Dry-Bulb Temperature Range {deltaC}
  23.6,                                   ! Humidity Indicating Conditions at Maximum Dry-Bulb {BasedOnField A3}
  98487,                                  ! Barometric Pressure {Pa}
  2.7,                                    ! Wind Speed {m/s}
  260,                                    ! Wind Direction {deg}
  0,                                      ! Sky Clearness
  0,                                      ! Rain Indicator
  0,                                      ! Snow Indicator
  21,                                     ! Day of Month
  7,                                      ! Month
  SummerDesignDay,                        ! Day Type
  0,                                      ! Daylight Saving Time Indicator
  Dewpoint,                               ! Humidity Indicating Type
  ,                                       ! Humidity Indicating Day Schedule Name
  DefaultMultipliers,                     ! Dry-Bulb Temperature Range Modifier Type
  ,                                       ! Dry-Bulb Temperature Range Modifier Schedule Name
  ASHRAETau,                              ! Solar Model Indicator
  ,                                       ! Beam Solar Day Schedule Name
  ,                                       ! Diffuse Solar Day Schedule Name
  0.505,                                  ! ASHRAE Taub {dimensionless}
  1.883;                                  ! ASHRAE Taud {dimensionless}

OS:ComponentData,
  {70f93d29-88a5-4b0a-937f-7cc51fadbcfa}, ! Handle
  Component Data 1,                       ! Name
  {4d268b2c-54fb-4251-b67d-26537fc2d484}, ! UUID
  {58df79f8-266f-459d-8af2-be9364ef6316}, ! Version UUID
  1366307634,                             ! Creation Timestamp
  1366307634,                             ! Version Timestamp
  {9cf43cea-d8c7-418c-81f5-33f7ed3d5fcb}; ! Name of Object 1

