
OS:Version,
  {35828f5a-546b-4344-a626-f4d33adf259f}, ! Handle
  0.9.3;                                  ! Version Identifier

OS:SizingPeriod:DesignDay,
  {436810ea-8cb9-4d4e-b0b8-44fd95fa214e}, ! Handle
  Glendive Awos Ann Clg 1% Condns WB=>MDB, ! Name
  28.7,                                   ! Maximum Dry-Bulb Temperature {C}
  14.4,                                   ! Daily Dry-Bulb Temperature Range {deltaC}
  19.9,                                   ! Humidity Indicating Conditions at Maximum Dry-Bulb {BasedOnField A3}
  92645,                                  ! Barometric Pressure {Pa}
  4.9,                                    ! Wind Speed {m/s}
  150,                                    ! Wind Direction {deg}
  0,                                      ! Sky Clearness
  0,                                      ! Rain Indicator
  0,                                      ! Snow Indicator
  21,                                     ! Day of Month
  7,                                      ! Month
  SummerDesignDay,                        ! Day Type
  0,                                      ! Daylight Saving Time Indicator
  Wetbulb,                                ! Humidity Indicating Type
  ,                                       ! Humidity Indicating Day Schedule Name
  DefaultMultipliers,                     ! Dry-Bulb Temperature Range Modifier Type
  ,                                       ! Dry-Bulb Temperature Range Modifier Schedule Name
  ASHRAETau,                              ! Solar Model Indicator
  ,                                       ! Beam Solar Day Schedule Name
  ,                                       ! Diffuse Solar Day Schedule Name
  0.397,                                  ! ASHRAE Taub {dimensionless}
  2.163;                                  ! ASHRAE Taud {dimensionless}

OS:ComponentData,
  {84ff561f-80f3-413b-aef8-f05e897abb64}, ! Handle
  Component Data 1,                       ! Name
  {6fd17096-4536-437b-9371-6f417f3d6a15}, ! UUID
  {497d35ec-a85f-47a3-83fb-43bafbaa62f4}, ! Version UUID
  1366308768,                             ! Creation Timestamp
  1366308768,                             ! Version Timestamp
  {436810ea-8cb9-4d4e-b0b8-44fd95fa214e}; ! Name of Object 1

