
OS:Version,
  {3994c73c-9b87-4e76-9517-cb6e97750122}, ! Handle
  0.9.3;                                  ! Version Identifier

OS:SizingPeriod:DesignDay,
  {c94d646f-0608-4876-8f3e-6ebd3d02e7ee}, ! Handle
  Greensboro Ann Clg 2% Condns Enth=>MDB, ! Name
  29.2,                                   ! Maximum Dry-Bulb Temperature {C}
  9.9,                                    ! Daily Dry-Bulb Temperature Range {deltaC}
  72300,                                  ! Humidity Indicating Conditions at Maximum Dry-Bulb {BasedOnField A3}
  98123,                                  ! Barometric Pressure {Pa}
  3.4,                                    ! Wind Speed {m/s}
  230,                                    ! Wind Direction {deg}
  0,                                      ! Sky Clearness
  0,                                      ! Rain Indicator
  0,                                      ! Snow Indicator
  21,                                     ! Day of Month
  7,                                      ! Month
  SummerDesignDay,                        ! Day Type
  0,                                      ! Daylight Saving Time Indicator
  Enthalpy,                               ! Humidity Indicating Type
  ,                                       ! Humidity Indicating Day Schedule Name
  DefaultMultipliers,                     ! Dry-Bulb Temperature Range Modifier Type
  ,                                       ! Dry-Bulb Temperature Range Modifier Schedule Name
  ASHRAETau,                              ! Solar Model Indicator
  ,                                       ! Beam Solar Day Schedule Name
  ,                                       ! Diffuse Solar Day Schedule Name
  0.557,                                  ! ASHRAE Taub {dimensionless}
  1.757;                                  ! ASHRAE Taud {dimensionless}

OS:ComponentData,
  {98add357-8aa7-4794-9be5-1ecc9efa0a84}, ! Handle
  Component Data 1,                       ! Name
  {7226f5ea-be51-4f94-88d3-877654b89fb6}, ! UUID
  {788ee1bf-5d45-44c0-8b07-1691330b8c96}, ! Version UUID
  1366308930,                             ! Creation Timestamp
  1366308930,                             ! Version Timestamp
  {c94d646f-0608-4876-8f3e-6ebd3d02e7ee}; ! Name of Object 1

