
OS:Version,
  {ca9c1b74-1cc2-4fc9-8fbc-20596fc75edc}, ! Handle
  0.9.3;                                  ! Version Identifier

OS:SizingPeriod:DesignDay,
  {102538b4-5699-44f3-862d-f2308ddf5e8d}, ! Handle
  Knoxville Mcghee Tyson Ap Ann Hum_n 99% Condns DP=>MCDB, ! Name
  -4.1,                                   ! Maximum Dry-Bulb Temperature {C}
  0,                                      ! Daily Dry-Bulb Temperature Range {deltaC}
  -13.2,                                  ! Humidity Indicating Conditions at Maximum Dry-Bulb {BasedOnField A3}
  97854,                                  ! Barometric Pressure {Pa}
  2.8,                                    ! Wind Speed {m/s}
  20,                                     ! Wind Direction {deg}
  0,                                      ! Sky Clearness
  0,                                      ! Rain Indicator
  0,                                      ! Snow Indicator
  21,                                     ! Day of Month
  1,                                      ! Month
  WinterDesignDay,                        ! Day Type
  0,                                      ! Daylight Saving Time Indicator
  Dewpoint,                               ! Humidity Indicating Type
  ,                                       ! Humidity Indicating Day Schedule Name
  DefaultMultipliers,                     ! Dry-Bulb Temperature Range Modifier Type
  ,                                       ! Dry-Bulb Temperature Range Modifier Schedule Name
  ASHRAEClearSky;                         ! Solar Model Indicator

OS:ComponentData,
  {98bb2b92-e893-4549-9e51-6aff1d6bfba5}, ! Handle
  Component Data 1,                       ! Name
  {dfc0512b-fd11-4bcf-8b8f-51ab1754bc4d}, ! UUID
  {55a5a833-ca23-4a8d-8f25-45af749eb736}, ! Version UUID
  1366310512,                             ! Creation Timestamp
  1366310512,                             ! Version Timestamp
  {102538b4-5699-44f3-862d-f2308ddf5e8d}; ! Name of Object 1

