
OS:Version,
  {b2faaaa2-4acd-4987-85eb-552de0829263}, ! Handle
  0.9.3;                                  ! Version Identifier

OS:SizingPeriod:DesignDay,
  {4519dc78-fabb-43d5-a9fb-de8cb03d2b74}, ! Handle
  BAKERSFIELD Ann Clg .4% Condns WB=>MDB, ! Name
  36.2,                                   ! Maximum Dry-Bulb Temperature {C}
  14.9,                                   ! Daily Dry-Bulb Temperature Range {deltaC}
  23.3,                                   ! Humidity Indicating Conditions at Maximum Dry-Bulb {BasedOnField A3}
  99536,                                  ! Barometric Pressure {Pa}
  5.3,                                    ! Wind Speed {m/s}
  300,                                    ! Wind Direction {deg}
  0,                                      ! Sky Clearness
  0,                                      ! Rain Indicator
  0,                                      ! Snow Indicator
  21,                                     ! Day of Month
  7,                                      ! Month
  SummerDesignDay,                        ! Day Type
  0,                                      ! Daylight Saving Time Indicator
  Wetbulb,                                ! Humidity Indicating Type
  ,                                       ! Humidity Indicating Day Schedule Name
  DefaultMultipliers,                     ! Dry-Bulb Temperature Range Modifier Type
  ,                                       ! Dry-Bulb Temperature Range Modifier Schedule Name
  ASHRAETau,                              ! Solar Model Indicator
  ,                                       ! Beam Solar Day Schedule Name
  ,                                       ! Diffuse Solar Day Schedule Name
  0.438,                                  ! ASHRAE Taub {dimensionless}
  2.106;                                  ! ASHRAE Taud {dimensionless}

OS:ComponentData,
  {abbe3adb-049a-4133-8022-1756b221dcf7}, ! Handle
  Component Data 1,                       ! Name
  {f55f450c-1da6-4a9d-9f90-1a3f5139a93a}, ! UUID
  {d8b73f3c-3f5e-486f-a4be-5811c43c082d}, ! Version UUID
  1366306369,                             ! Creation Timestamp
  1366306369,                             ! Version Timestamp
  {4519dc78-fabb-43d5-a9fb-de8cb03d2b74}; ! Name of Object 1

