
OS:Version,
  {8e6f9cc6-cdcc-47ab-843b-3fd4b0de5341}, ! Handle
  0.9.3;                                  ! Version Identifier

OS:SizingPeriod:DesignDay,
  {361d55ab-ad7d-4511-bfbc-5c34e7c2be45}, ! Handle
  Big Delta/Ft Greely Ann Clg 1% Condns WB=>MDB, ! Name
  22,                                     ! Maximum Dry-Bulb Temperature {C}
  9.5,                                    ! Daily Dry-Bulb Temperature Range {deltaC}
  14.8,                                   ! Humidity Indicating Conditions at Maximum Dry-Bulb {BasedOnField A3}
  96715,                                  ! Barometric Pressure {Pa}
  3.3,                                    ! Wind Speed {m/s}
  310,                                    ! Wind Direction {deg}
  0,                                      ! Sky Clearness
  0,                                      ! Rain Indicator
  0,                                      ! Snow Indicator
  21,                                     ! Day of Month
  7,                                      ! Month
  SummerDesignDay,                        ! Day Type
  0,                                      ! Daylight Saving Time Indicator
  Wetbulb,                                ! Humidity Indicating Type
  ,                                       ! Humidity Indicating Day Schedule Name
  DefaultMultipliers,                     ! Dry-Bulb Temperature Range Modifier Type
  ,                                       ! Dry-Bulb Temperature Range Modifier Schedule Name
  ASHRAETau,                              ! Solar Model Indicator
  ,                                       ! Beam Solar Day Schedule Name
  ,                                       ! Diffuse Solar Day Schedule Name
  0.398,                                  ! ASHRAE Taub {dimensionless}
  2.083;                                  ! ASHRAE Taud {dimensionless}

OS:ComponentData,
  {97d8aadd-f217-499e-a329-8699a22143cd}, ! Handle
  Component Data 1,                       ! Name
  {0ffd25d2-9d19-4c28-bf49-e8d4389d97cc}, ! UUID
  {b2174ab5-9913-4017-84a5-ea74e7ecf21a}, ! Version UUID
  1366304772,                             ! Creation Timestamp
  1366304772,                             ! Version Timestamp
  {361d55ab-ad7d-4511-bfbc-5c34e7c2be45}; ! Name of Object 1

