
OS:Version,
  {90e5c28e-5e35-41f3-835e-74f7ad2a6500}, ! Handle
  0.9.3;                                  ! Version Identifier

OS:SizingPeriod:DesignDay,
  {5e709e35-4dd3-486c-9cb5-5372595757de}, ! Handle
  Columbia Ann Htg Wind 99.6% Condns WS=>MCDB, ! Name
  2,                                      ! Maximum Dry-Bulb Temperature {C}
  0,                                      ! Daily Dry-Bulb Temperature Range {deltaC}
  2,                                      ! Humidity Indicating Conditions at Maximum Dry-Bulb {BasedOnField A3}
  98076,                                  ! Barometric Pressure {Pa}
  12.5,                                   ! Wind Speed {m/s}
  280,                                    ! Wind Direction {deg}
  0,                                      ! Sky Clearness
  0,                                      ! Rain Indicator
  0,                                      ! Snow Indicator
  21,                                     ! Day of Month
  1,                                      ! Month
  WinterDesignDay,                        ! Day Type
  0,                                      ! Daylight Saving Time Indicator
  Wetbulb,                                ! Humidity Indicating Type
  ,                                       ! Humidity Indicating Day Schedule Name
  DefaultMultipliers,                     ! Dry-Bulb Temperature Range Modifier Type
  ,                                       ! Dry-Bulb Temperature Range Modifier Schedule Name
  ASHRAEClearSky;                         ! Solar Model Indicator

OS:ComponentData,
  {350565e6-a061-4e2c-81d1-0ae59ba34689}, ! Handle
  Component Data 1,                       ! Name
  {160ee892-6857-4eb7-8b40-0f971ae88975}, ! UUID
  {68a68f7f-af3f-4d5c-8205-2f5beea6f4cc}, ! Version UUID
  1366308485,                             ! Creation Timestamp
  1366308485,                             ! Version Timestamp
  {5e709e35-4dd3-486c-9cb5-5372595757de}; ! Name of Object 1

