
OS:Version,
  {1c2eacc0-0489-4fa7-9998-f7d239e5b619}, ! Handle
  0.9.3;                                  ! Version Identifier

OS:SizingPeriod:DesignDay,
  {25d0be14-6df8-4800-8391-41b4b897e634}, ! Handle
  Bangor/Dow AFB Ann Clg .4% Condns DB=>MWB, ! Name
  31,                                     ! Maximum Dry-Bulb Temperature {C}
  11.3,                                   ! Daily Dry-Bulb Temperature Range {deltaC}
  21.6,                                   ! Humidity Indicating Conditions at Maximum Dry-Bulb {BasedOnField A3}
  100654,                                 ! Barometric Pressure {Pa}
  4.5,                                    ! Wind Speed {m/s}
  280,                                    ! Wind Direction {deg}
  0,                                      ! Sky Clearness
  0,                                      ! Rain Indicator
  0,                                      ! Snow Indicator
  21,                                     ! Day of Month
  7,                                      ! Month
  SummerDesignDay,                        ! Day Type
  0,                                      ! Daylight Saving Time Indicator
  Wetbulb,                                ! Humidity Indicating Type
  ,                                       ! Humidity Indicating Day Schedule Name
  DefaultMultipliers,                     ! Dry-Bulb Temperature Range Modifier Type
  ,                                       ! Dry-Bulb Temperature Range Modifier Schedule Name
  ASHRAETau,                              ! Solar Model Indicator
  ,                                       ! Beam Solar Day Schedule Name
  ,                                       ! Diffuse Solar Day Schedule Name
  0.458,                                  ! ASHRAE Taub {dimensionless}
  2.019;                                  ! ASHRAE Taud {dimensionless}

