
OS:Version,
  {2f7152c4-d2d5-491b-bbf9-bd4f108de63e}, ! Handle
  0.9.3;                                  ! Version Identifier

OS:SizingPeriod:DesignDay,
  {22dedac4-af8c-48b1-b12a-a402d3542bdd}, ! Handle
  Iron Mountain Ford Ann Htg 99% Condns DB, ! Name
  -21.2,                                  ! Maximum Dry-Bulb Temperature {C}
  0,                                      ! Daily Dry-Bulb Temperature Range {deltaC}
  -21.2,                                  ! Humidity Indicating Conditions at Maximum Dry-Bulb {BasedOnField A3}
  97074,                                  ! Barometric Pressure {Pa}
  1.8,                                    ! Wind Speed {m/s}
  270,                                    ! Wind Direction {deg}
  0,                                      ! Sky Clearness
  0,                                      ! Rain Indicator
  0,                                      ! Snow Indicator
  21,                                     ! Day of Month
  1,                                      ! Month
  WinterDesignDay,                        ! Day Type
  0,                                      ! Daylight Saving Time Indicator
  Wetbulb,                                ! Humidity Indicating Type
  ,                                       ! Humidity Indicating Day Schedule Name
  DefaultMultipliers,                     ! Dry-Bulb Temperature Range Modifier Type
  ,                                       ! Dry-Bulb Temperature Range Modifier Schedule Name
  ASHRAEClearSky;                         ! Solar Model Indicator

OS:ComponentData,
  {f58c1dcd-4611-498e-af69-d8ee5fdbe70c}, ! Handle
  Component Data 1,                       ! Name
  {4020e36e-a455-4765-b87a-95b273d3c592}, ! UUID
  {0b279805-a989-4362-a818-c792d1c55a01}, ! Version UUID
  1366308036,                             ! Creation Timestamp
  1366308036,                             ! Version Timestamp
  {22dedac4-af8c-48b1-b12a-a402d3542bdd}; ! Name of Object 1

