
OS:Version,
  {f6897012-3769-4f1a-bdaf-5842b9fff512}, ! Handle
  0.9.3;                                  ! Version Identifier

OS:SizingPeriod:DesignDay,
  {64c284e3-2b1d-491c-97a5-7c4eaa2cec1f}, ! Handle
  Anvik Ann Clg .4% Condns DB=>MWB,       ! Name
  22.8,                                   ! Maximum Dry-Bulb Temperature {C}
  8.2,                                    ! Daily Dry-Bulb Temperature Range {deltaC}
  13.6,                                   ! Humidity Indicating Conditions at Maximum Dry-Bulb {BasedOnField A3}
  100141,                                 ! Barometric Pressure {Pa}
  2,                                      ! Wind Speed {m/s}
  10,                                     ! Wind Direction {deg}
  0,                                      ! Sky Clearness
  0,                                      ! Rain Indicator
  0,                                      ! Snow Indicator
  21,                                     ! Day of Month
  7,                                      ! Month
  SummerDesignDay,                        ! Day Type
  0,                                      ! Daylight Saving Time Indicator
  Wetbulb,                                ! Humidity Indicating Type
  ,                                       ! Humidity Indicating Day Schedule Name
  DefaultMultipliers,                     ! Dry-Bulb Temperature Range Modifier Type
  ,                                       ! Dry-Bulb Temperature Range Modifier Schedule Name
  ASHRAETau,                              ! Solar Model Indicator
  ,                                       ! Beam Solar Day Schedule Name
  ,                                       ! Diffuse Solar Day Schedule Name
  0.369,                                  ! ASHRAE Taub {dimensionless}
  2.27;                                   ! ASHRAE Taud {dimensionless}

OS:ComponentData,
  {05d9c91a-a1a7-42d2-bfa2-39c8509c4587}, ! Handle
  Component Data 1,                       ! Name
  {f7bcf65c-ff81-4c04-af7f-9d40fa332bf6}, ! UUID
  {237cb286-1ac9-4b4b-a49d-68f3cdea75dc}, ! Version UUID
  1366304731,                             ! Creation Timestamp
  1366304731,                             ! Version Timestamp
  {64c284e3-2b1d-491c-97a5-7c4eaa2cec1f}; ! Name of Object 1

