
OS:Version,
  {7f3c7947-2f49-4361-beaa-942722afff3b}, ! Handle
  0.9.3;                                  ! Version Identifier

OS:SizingPeriod:DesignDay,
  {2c28ef50-6f5c-43c0-8fff-1695243a9866}, ! Handle
  Aurora State Ann Clg 1% Condns DB=>MWB, ! Name
  31.2,                                   ! Maximum Dry-Bulb Temperature {C}
  13.8,                                   ! Daily Dry-Bulb Temperature Range {deltaC}
  19.5,                                   ! Humidity Indicating Conditions at Maximum Dry-Bulb {BasedOnField A3}
  100606,                                 ! Barometric Pressure {Pa}
  3.3,                                    ! Wind Speed {m/s}
  10,                                     ! Wind Direction {deg}
  0,                                      ! Sky Clearness
  0,                                      ! Rain Indicator
  0,                                      ! Snow Indicator
  21,                                     ! Day of Month
  7,                                      ! Month
  SummerDesignDay,                        ! Day Type
  0,                                      ! Daylight Saving Time Indicator
  Wetbulb,                                ! Humidity Indicating Type
  ,                                       ! Humidity Indicating Day Schedule Name
  DefaultMultipliers,                     ! Dry-Bulb Temperature Range Modifier Type
  ,                                       ! Dry-Bulb Temperature Range Modifier Schedule Name
  ASHRAETau,                              ! Solar Model Indicator
  ,                                       ! Beam Solar Day Schedule Name
  ,                                       ! Diffuse Solar Day Schedule Name
  0.362,                                  ! ASHRAE Taub {dimensionless}
  2.515;                                  ! ASHRAE Taud {dimensionless}

