
OS:Version,
  {0c5439d6-308b-4e9c-9cc1-e3e8e6720bcf}, ! Handle
  0.9.3;                                  ! Version Identifier

OS:SizingPeriod:DesignDay,
  {658653eb-ecd3-4644-9466-7df60622abeb}, ! Handle
  Covington/Cincinnati O Ann Hum_n 99% Condns DP=>MCDB, ! Name
  -11.2,                                  ! Maximum Dry-Bulb Temperature {C}
  0,                                      ! Daily Dry-Bulb Temperature Range {deltaC}
  -17.4,                                  ! Humidity Indicating Conditions at Maximum Dry-Bulb {BasedOnField A3}
  98158,                                  ! Barometric Pressure {Pa}
  3.8,                                    ! Wind Speed {m/s}
  280,                                    ! Wind Direction {deg}
  0,                                      ! Sky Clearness
  0,                                      ! Rain Indicator
  0,                                      ! Snow Indicator
  21,                                     ! Day of Month
  1,                                      ! Month
  WinterDesignDay,                        ! Day Type
  0,                                      ! Daylight Saving Time Indicator
  Dewpoint,                               ! Humidity Indicating Type
  ,                                       ! Humidity Indicating Day Schedule Name
  DefaultMultipliers,                     ! Dry-Bulb Temperature Range Modifier Type
  ,                                       ! Dry-Bulb Temperature Range Modifier Schedule Name
  ASHRAEClearSky;                         ! Solar Model Indicator

OS:ComponentData,
  {53cf583e-ca5f-4ff5-8ffe-c694309e1717}, ! Handle
  Component Data 1,                       ! Name
  {352f5428-74a5-46e8-9345-72d50a0d9363}, ! UUID
  {7504fd16-97e8-4ee4-93fe-7982b9a41cc9}, ! Version UUID
  1366307615,                             ! Creation Timestamp
  1366307615,                             ! Version Timestamp
  {658653eb-ecd3-4644-9466-7df60622abeb}; ! Name of Object 1

