
OS:Version,
  {c3c3dd74-1fea-4602-9259-d5b73216c825}, ! Handle
  0.9.3;                                  ! Version Identifier

OS:SizingPeriod:DesignDay,
  {978fe935-4815-48c9-a3d0-4a9047937e8d}, ! Handle
  Dyersburg Municipal Ap Ann Clg 2% Condns DP=>MDB, ! Name
  28.8,                                   ! Maximum Dry-Bulb Temperature {C}
  9.6,                                    ! Daily Dry-Bulb Temperature Range {deltaC}
  23.4,                                   ! Humidity Indicating Conditions at Maximum Dry-Bulb {BasedOnField A3}
  100094,                                 ! Barometric Pressure {Pa}
  2.9,                                    ! Wind Speed {m/s}
  220,                                    ! Wind Direction {deg}
  0,                                      ! Sky Clearness
  0,                                      ! Rain Indicator
  0,                                      ! Snow Indicator
  21,                                     ! Day of Month
  7,                                      ! Month
  SummerDesignDay,                        ! Day Type
  0,                                      ! Daylight Saving Time Indicator
  Dewpoint,                               ! Humidity Indicating Type
  ,                                       ! Humidity Indicating Day Schedule Name
  DefaultMultipliers,                     ! Dry-Bulb Temperature Range Modifier Type
  ,                                       ! Dry-Bulb Temperature Range Modifier Schedule Name
  ASHRAETau,                              ! Solar Model Indicator
  ,                                       ! Beam Solar Day Schedule Name
  ,                                       ! Diffuse Solar Day Schedule Name
  0.496,                                  ! ASHRAE Taub {dimensionless}
  1.94;                                   ! ASHRAE Taud {dimensionless}

OS:ComponentData,
  {4bed74af-4477-400c-b61a-87bd04286c4a}, ! Handle
  Component Data 1,                       ! Name
  {46725432-6544-4e78-85b6-1f7064ce7cad}, ! UUID
  {8a72e3bf-dae4-4da0-96ab-106fc2299c58}, ! Version UUID
  1366310501,                             ! Creation Timestamp
  1366310501,                             ! Version Timestamp
  {978fe935-4815-48c9-a3d0-4a9047937e8d}; ! Name of Object 1

