
OS:Version,
  {328e35cd-e881-402a-86dd-637c46d14e8a}, ! Handle
  0.9.3;                                  ! Version Identifier

OS:SizingPeriod:DesignDay,
  {fc4cd3da-0f4e-40c1-8c10-e14e99268f58}, ! Handle
  Burlington Ann Hum_n 99% Condns DP=>MCDB, ! Name
  -16.6,                                  ! Maximum Dry-Bulb Temperature {C}
  0,                                      ! Daily Dry-Bulb Temperature Range {deltaC}
  -21.7,                                  ! Humidity Indicating Conditions at Maximum Dry-Bulb {BasedOnField A3}
  98792,                                  ! Barometric Pressure {Pa}
  3.8,                                    ! Wind Speed {m/s}
  310,                                    ! Wind Direction {deg}
  0,                                      ! Sky Clearness
  0,                                      ! Rain Indicator
  0,                                      ! Snow Indicator
  21,                                     ! Day of Month
  1,                                      ! Month
  WinterDesignDay,                        ! Day Type
  0,                                      ! Daylight Saving Time Indicator
  Dewpoint,                               ! Humidity Indicating Type
  ,                                       ! Humidity Indicating Day Schedule Name
  DefaultMultipliers,                     ! Dry-Bulb Temperature Range Modifier Type
  ,                                       ! Dry-Bulb Temperature Range Modifier Schedule Name
  ASHRAEClearSky;                         ! Solar Model Indicator

OS:ComponentData,
  {64d6bfa9-a8ae-4d42-a4d0-841e45f90544}, ! Handle
  Component Data 1,                       ! Name
  {0b125fd8-225a-44e7-bff4-c2a369d008bf}, ! UUID
  {4042f1c1-3e4d-43da-92fb-4566f2d0b252}, ! Version UUID
  1366307139,                             ! Creation Timestamp
  1366307139,                             ! Version Timestamp
  {fc4cd3da-0f4e-40c1-8c10-e14e99268f58}; ! Name of Object 1

