
OS:Version,
  {60395d7c-e3a9-4a37-a1e7-039232c0f5df}, ! Handle
  0.9.3;                                  ! Version Identifier

OS:SizingPeriod:DesignDay,
  {177d5d45-846b-42c3-9e4c-116988615f9a}, ! Handle
  Caldwell  Awos Ann Clg 1% Condns WB=>MDB, ! Name
  32.1,                                   ! Maximum Dry-Bulb Temperature {C}
  17.9,                                   ! Daily Dry-Bulb Temperature Range {deltaC}
  19.3,                                   ! Humidity Indicating Conditions at Maximum Dry-Bulb {BasedOnField A3}
  92745,                                  ! Barometric Pressure {Pa}
  2.4,                                    ! Wind Speed {m/s}
  350,                                    ! Wind Direction {deg}
  0,                                      ! Sky Clearness
  0,                                      ! Rain Indicator
  0,                                      ! Snow Indicator
  21,                                     ! Day of Month
  7,                                      ! Month
  SummerDesignDay,                        ! Day Type
  0,                                      ! Daylight Saving Time Indicator
  Wetbulb,                                ! Humidity Indicating Type
  ,                                       ! Humidity Indicating Day Schedule Name
  DefaultMultipliers,                     ! Dry-Bulb Temperature Range Modifier Type
  ,                                       ! Dry-Bulb Temperature Range Modifier Schedule Name
  ASHRAETau,                              ! Solar Model Indicator
  ,                                       ! Beam Solar Day Schedule Name
  ,                                       ! Diffuse Solar Day Schedule Name
  0.411,                                  ! ASHRAE Taub {dimensionless}
  2.073;                                  ! ASHRAE Taud {dimensionless}

OS:ComponentData,
  {5d82065b-86d8-4e68-85a7-319f6be49cd7}, ! Handle
  Component Data 1,                       ! Name
  {3fcc2223-62f4-4ec7-addf-392e333aea03}, ! UUID
  {8bd9c7b0-87dd-42cb-821e-69bbfc124f9c}, ! Version UUID
  1366307277,                             ! Creation Timestamp
  1366307277,                             ! Version Timestamp
  {177d5d45-846b-42c3-9e4c-116988615f9a}; ! Name of Object 1

