
OS:Version,
  {8de80f7f-e0a2-4f20-b116-520b668e244c}, ! Handle
  0.9.3;                                  ! Version Identifier

OS:SizingPeriod:DesignDay,
  {9633e8dc-9156-4748-a683-e87b9cc4580b}, ! Handle
  Fort Worth Meacham Ann Clg .4% Condns Enth=>MDB, ! Name
  33.2,                                   ! Maximum Dry-Bulb Temperature {C}
  11.1,                                   ! Daily Dry-Bulb Temperature Range {deltaC}
  81300,                                  ! Humidity Indicating Conditions at Maximum Dry-Bulb {BasedOnField A3}
  98839,                                  ! Barometric Pressure {Pa}
  4.6,                                    ! Wind Speed {m/s}
  160,                                    ! Wind Direction {deg}
  0,                                      ! Sky Clearness
  0,                                      ! Rain Indicator
  0,                                      ! Snow Indicator
  21,                                     ! Day of Month
  8,                                      ! Month
  SummerDesignDay,                        ! Day Type
  0,                                      ! Daylight Saving Time Indicator
  Enthalpy,                               ! Humidity Indicating Type
  ,                                       ! Humidity Indicating Day Schedule Name
  DefaultMultipliers,                     ! Dry-Bulb Temperature Range Modifier Type
  ,                                       ! Dry-Bulb Temperature Range Modifier Schedule Name
  ASHRAETau,                              ! Solar Model Indicator
  ,                                       ! Beam Solar Day Schedule Name
  ,                                       ! Diffuse Solar Day Schedule Name
  0.466,                                  ! ASHRAE Taub {dimensionless}
  2.06;                                   ! ASHRAE Taud {dimensionless}

OS:ComponentData,
  {3593ff7a-f7c4-4bb9-a0f3-4b288e8cb8f8}, ! Handle
  Component Data 1,                       ! Name
  {aedbf100-40c9-460b-b93d-6ee5fab60119}, ! UUID
  {ac93ae66-d15f-43bb-b50b-4e33871dcb99}, ! Version UUID
  1366310703,                             ! Creation Timestamp
  1366310703,                             ! Version Timestamp
  {9633e8dc-9156-4748-a683-e87b9cc4580b}; ! Name of Object 1

