
OS:Version,
  {cd9338c2-f0d7-4b1b-8178-56e26dfac9b2}, ! Handle
  0.9.3;                                  ! Version Identifier

OS:SizingPeriod:DesignDay,
  {507f78e7-8dd2-416b-9f18-e29a02f6fc5a}, ! Handle
  Brainerd Wieland Ann Clg .4% Condns WB=>MDB, ! Name
  29.2,                                   ! Maximum Dry-Bulb Temperature {C}
  11.7,                                   ! Daily Dry-Bulb Temperature Range {deltaC}
  24.1,                                   ! Humidity Indicating Conditions at Maximum Dry-Bulb {BasedOnField A3}
  96912,                                  ! Barometric Pressure {Pa}
  5.2,                                    ! Wind Speed {m/s}
  200,                                    ! Wind Direction {deg}
  0,                                      ! Sky Clearness
  0,                                      ! Rain Indicator
  0,                                      ! Snow Indicator
  21,                                     ! Day of Month
  7,                                      ! Month
  SummerDesignDay,                        ! Day Type
  0,                                      ! Daylight Saving Time Indicator
  Wetbulb,                                ! Humidity Indicating Type
  ,                                       ! Humidity Indicating Day Schedule Name
  DefaultMultipliers,                     ! Dry-Bulb Temperature Range Modifier Type
  ,                                       ! Dry-Bulb Temperature Range Modifier Schedule Name
  ASHRAETau,                              ! Solar Model Indicator
  ,                                       ! Beam Solar Day Schedule Name
  ,                                       ! Diffuse Solar Day Schedule Name
  0.394,                                  ! ASHRAE Taub {dimensionless}
  2.249;                                  ! ASHRAE Taud {dimensionless}

OS:ComponentData,
  {757109c7-5008-4b29-b4c2-0ca3c6d9d4cf}, ! Handle
  Component Data 1,                       ! Name
  {b147f05b-632c-43f8-a92b-a111eeae7b3f}, ! UUID
  {9328d711-8a47-44a0-b85f-04092b1b94fa}, ! Version UUID
  1366308171,                             ! Creation Timestamp
  1366308171,                             ! Version Timestamp
  {507f78e7-8dd2-416b-9f18-e29a02f6fc5a}; ! Name of Object 1

