
OS:Version,
  {e0f7a3a3-fc5f-42d0-9cf5-784c7dbd9371}, ! Handle
  0.9.3;                                  ! Version Identifier

OS:SizingPeriod:DesignDay,
  {9a98bf77-e9f1-4c90-8e4e-fe50abf5cdec}, ! Handle
  COLUMBUS Ann Htg 99.6% Condns DB,       ! Name
  -16,                                    ! Maximum Dry-Bulb Temperature {C}
  0,                                      ! Daily Dry-Bulb Temperature Range {deltaC}
  -16,                                    ! Humidity Indicating Conditions at Maximum Dry-Bulb {BasedOnField A3}
  98311,                                  ! Barometric Pressure {Pa}
  3.6,                                    ! Wind Speed {m/s}
  260,                                    ! Wind Direction {deg}
  0,                                      ! Sky Clearness
  0,                                      ! Rain Indicator
  0,                                      ! Snow Indicator
  21,                                     ! Day of Month
  1,                                      ! Month
  WinterDesignDay,                        ! Day Type
  0,                                      ! Daylight Saving Time Indicator
  Wetbulb,                                ! Humidity Indicating Type
  ,                                       ! Humidity Indicating Day Schedule Name
  DefaultMultipliers,                     ! Dry-Bulb Temperature Range Modifier Type
  ,                                       ! Dry-Bulb Temperature Range Modifier Schedule Name
  ASHRAEClearSky;                         ! Solar Model Indicator

OS:ComponentData,
  {239681de-e5ce-4fdf-ac77-ac4be7fd457d}, ! Handle
  Component Data 1,                       ! Name
  {3cbf5aba-e42e-46ae-bf6b-8b1c2a82975c}, ! UUID
  {b8ebea3d-1916-4924-b1a0-1ffe3cadd80a}, ! Version UUID
  1366309802,                             ! Creation Timestamp
  1366309802,                             ! Version Timestamp
  {9a98bf77-e9f1-4c90-8e4e-fe50abf5cdec}; ! Name of Object 1

