
OS:Version,
  {2902fc5d-2cf3-4cc4-b343-83857ee3298c}, ! Handle
  0.9.3;                                  ! Version Identifier

OS:SizingPeriod:DesignDay,
  {724a3508-ab61-4721-8133-95cf970e2c14}, ! Handle
  El Dorado Goodwin Field Ann Clg 1% Condns DP=>MDB, ! Name
  28.5,                                   ! Maximum Dry-Bulb Temperature {C}
  11.4,                                   ! Daily Dry-Bulb Temperature Range {deltaC}
  24.9,                                   ! Humidity Indicating Conditions at Maximum Dry-Bulb {BasedOnField A3}
  100403,                                 ! Barometric Pressure {Pa}
  3,                                      ! Wind Speed {m/s}
  240,                                    ! Wind Direction {deg}
  0,                                      ! Sky Clearness
  0,                                      ! Rain Indicator
  0,                                      ! Snow Indicator
  21,                                     ! Day of Month
  7,                                      ! Month
  SummerDesignDay,                        ! Day Type
  0,                                      ! Daylight Saving Time Indicator
  Dewpoint,                               ! Humidity Indicating Type
  ,                                       ! Humidity Indicating Day Schedule Name
  DefaultMultipliers,                     ! Dry-Bulb Temperature Range Modifier Type
  ,                                       ! Dry-Bulb Temperature Range Modifier Schedule Name
  ASHRAETau,                              ! Solar Model Indicator
  ,                                       ! Beam Solar Day Schedule Name
  ,                                       ! Diffuse Solar Day Schedule Name
  0.499,                                  ! ASHRAE Taub {dimensionless}
  1.974;                                  ! ASHRAE Taud {dimensionless}

OS:ComponentData,
  {7fdae36f-0148-44e8-a9a0-c03332825c4d}, ! Handle
  Component Data 1,                       ! Name
  {d2ff34f0-cbee-4112-bbf9-042b0b95e91a}, ! UUID
  {b8afefc4-cd17-4426-94de-9083081df139}, ! Version UUID
  1366306198,                             ! Creation Timestamp
  1366306198,                             ! Version Timestamp
  {724a3508-ab61-4721-8133-95cf970e2c14}; ! Name of Object 1

