
OS:Version,
  {142ffec7-b7c9-4232-81ad-8820bef8dae8}, ! Handle
  0.9.3;                                  ! Version Identifier

OS:SizingPeriod:DesignDay,
  {709ab799-5b8d-420f-acbc-b7c1b5731340}, ! Handle
  Grand Rapids Kent County Int Ann Clg 1% Condns DP=>MDB, ! Name
  26.4,                                   ! Maximum Dry-Bulb Temperature {C}
  11.1,                                   ! Daily Dry-Bulb Temperature Range {deltaC}
  22.1,                                   ! Humidity Indicating Conditions at Maximum Dry-Bulb {BasedOnField A3}
  98451,                                  ! Barometric Pressure {Pa}
  5.8,                                    ! Wind Speed {m/s}
  240,                                    ! Wind Direction {deg}
  0,                                      ! Sky Clearness
  0,                                      ! Rain Indicator
  0,                                      ! Snow Indicator
  21,                                     ! Day of Month
  7,                                      ! Month
  SummerDesignDay,                        ! Day Type
  0,                                      ! Daylight Saving Time Indicator
  Dewpoint,                               ! Humidity Indicating Type
  ,                                       ! Humidity Indicating Day Schedule Name
  DefaultMultipliers,                     ! Dry-Bulb Temperature Range Modifier Type
  ,                                       ! Dry-Bulb Temperature Range Modifier Schedule Name
  ASHRAETau,                              ! Solar Model Indicator
  ,                                       ! Beam Solar Day Schedule Name
  ,                                       ! Diffuse Solar Day Schedule Name
  0.424,                                  ! ASHRAE Taub {dimensionless}
  2.173;                                  ! ASHRAE Taud {dimensionless}

OS:ComponentData,
  {762d6c2e-9040-4229-8721-f8c1c2e86bac}, ! Handle
  Component Data 1,                       ! Name
  {ee9984ec-b91a-497f-bdcd-34d1ebf4b0f9}, ! UUID
  {bd4f174b-2431-4d3a-9f6a-fb64f7bec875}, ! Version UUID
  1366308015,                             ! Creation Timestamp
  1366308015,                             ! Version Timestamp
  {709ab799-5b8d-420f-acbc-b7c1b5731340}; ! Name of Object 1

