
OS:Version,
  {7e8f3310-56eb-4b2b-a972-6daef0bebd3e}, ! Handle
  0.9.3;                                  ! Version Identifier

OS:SizingPeriod:DesignDay,
  {920ab5c6-c8e3-49f9-9eef-f7bf8e954fe7}, ! Handle
  Arcata/Eureka Ann Htg 99.6% Condns DB,  ! Name
  -0.6,                                   ! Maximum Dry-Bulb Temperature {C}
  0,                                      ! Daily Dry-Bulb Temperature Range {deltaC}
  -0.6,                                   ! Humidity Indicating Conditions at Maximum Dry-Bulb {BasedOnField A3}
  100535,                                 ! Barometric Pressure {Pa}
  2,                                      ! Wind Speed {m/s}
  90,                                     ! Wind Direction {deg}
  0,                                      ! Sky Clearness
  0,                                      ! Rain Indicator
  0,                                      ! Snow Indicator
  21,                                     ! Day of Month
  12,                                     ! Month
  WinterDesignDay,                        ! Day Type
  0,                                      ! Daylight Saving Time Indicator
  Wetbulb,                                ! Humidity Indicating Type
  ,                                       ! Humidity Indicating Day Schedule Name
  DefaultMultipliers,                     ! Dry-Bulb Temperature Range Modifier Type
  ,                                       ! Dry-Bulb Temperature Range Modifier Schedule Name
  ASHRAEClearSky;                         ! Solar Model Indicator

OS:ComponentData,
  {10650c1a-62e9-438a-829e-35919e62660e}, ! Handle
  Component Data 1,                       ! Name
  {bf539f51-c81f-4b8c-8caa-1623af4153e4}, ! UUID
  {46f4ee0f-c98e-41b3-8c69-21914e2bd37e}, ! Version UUID
  1366306348,                             ! Creation Timestamp
  1366306348,                             ! Version Timestamp
  {920ab5c6-c8e3-49f9-9eef-f7bf8e954fe7}; ! Name of Object 1

