
OS:Version,
  {7c395891-fdc9-49a7-b9ae-66c685b8c8f1}, ! Handle
  0.9.3;                                  ! Version Identifier

OS:SizingPeriod:DesignDay,
  {3e35d029-0bcf-4306-a0ed-9d56c0497c92}, ! Handle
  Columbus Afb Ann Hum_n 99.6% Condns DP=>MCDB, ! Name
  -2.9,                                   ! Maximum Dry-Bulb Temperature {C}
  0,                                      ! Daily Dry-Bulb Temperature Range {deltaC}
  -13,                                    ! Humidity Indicating Conditions at Maximum Dry-Bulb {BasedOnField A3}
  100511,                                 ! Barometric Pressure {Pa}
  2.9,                                    ! Wind Speed {m/s}
  0,                                      ! Wind Direction {deg}
  0,                                      ! Sky Clearness
  0,                                      ! Rain Indicator
  0,                                      ! Snow Indicator
  21,                                     ! Day of Month
  1,                                      ! Month
  WinterDesignDay,                        ! Day Type
  0,                                      ! Daylight Saving Time Indicator
  Dewpoint,                               ! Humidity Indicating Type
  ,                                       ! Humidity Indicating Day Schedule Name
  DefaultMultipliers,                     ! Dry-Bulb Temperature Range Modifier Type
  ,                                       ! Dry-Bulb Temperature Range Modifier Schedule Name
  ASHRAEClearSky;                         ! Solar Model Indicator

OS:ComponentData,
  {db0ab1d4-9756-4a2a-88e8-91fcf37f4314}, ! Handle
  Component Data 1,                       ! Name
  {baa505bf-b66f-42ce-9892-02612b92c7b2}, ! UUID
  {8aa5c553-5c16-4420-915a-a28e33eb2f2a}, ! Version UUID
  1366308612,                             ! Creation Timestamp
  1366308612,                             ! Version Timestamp
  {3e35d029-0bcf-4306-a0ed-9d56c0497c92}; ! Name of Object 1

