
OS:Version,
  {01130479-5338-4c07-a70e-d4ef3afbca83}, ! Handle
  0.9.3;                                  ! Version Identifier

OS:SizingPeriod:DesignDay,
  {e7578ad1-f99c-419d-b96f-356d8688cab9}, ! Handle
  Burlington Ann Hum_n 99.6% Condns DP=>MCDB, ! Name
  -19.1,                                  ! Maximum Dry-Bulb Temperature {C}
  0,                                      ! Daily Dry-Bulb Temperature Range {deltaC}
  -24.7,                                  ! Humidity Indicating Conditions at Maximum Dry-Bulb {BasedOnField A3}
  98792,                                  ! Barometric Pressure {Pa}
  3.8,                                    ! Wind Speed {m/s}
  310,                                    ! Wind Direction {deg}
  0,                                      ! Sky Clearness
  0,                                      ! Rain Indicator
  0,                                      ! Snow Indicator
  21,                                     ! Day of Month
  1,                                      ! Month
  WinterDesignDay,                        ! Day Type
  0,                                      ! Daylight Saving Time Indicator
  Dewpoint,                               ! Humidity Indicating Type
  ,                                       ! Humidity Indicating Day Schedule Name
  DefaultMultipliers,                     ! Dry-Bulb Temperature Range Modifier Type
  ,                                       ! Dry-Bulb Temperature Range Modifier Schedule Name
  ASHRAEClearSky;                         ! Solar Model Indicator

OS:ComponentData,
  {300ecf7d-bf8d-48d6-9b18-cf8f6de2ae03}, ! Handle
  Component Data 1,                       ! Name
  {f6a98d7d-dfca-4787-a119-3b4b48606a98}, ! UUID
  {0085e448-25d9-40c9-8965-82f8c99bb822}, ! Version UUID
  1366307139,                             ! Creation Timestamp
  1366307139,                             ! Version Timestamp
  {e7578ad1-f99c-419d-b96f-356d8688cab9}; ! Name of Object 1

