
OS:Version,
  {e222ac18-30e5-42c8-9000-b5cbdde0eff7}, ! Handle
  0.9.3;                                  ! Version Identifier

OS:SizingPeriod:DesignDay,
  {f061f2c5-f6e1-440b-b975-7642e6c9ba49}, ! Handle
  Hoquiam Ap Ann Clg 2% Condns DP=>MDB,   ! Name
  17.8,                                   ! Maximum Dry-Bulb Temperature {C}
  7.4,                                    ! Daily Dry-Bulb Temperature Range {deltaC}
  15.2,                                   ! Humidity Indicating Conditions at Maximum Dry-Bulb {BasedOnField A3}
  101277,                                 ! Barometric Pressure {Pa}
  4.3,                                    ! Wind Speed {m/s}
  290,                                    ! Wind Direction {deg}
  0,                                      ! Sky Clearness
  0,                                      ! Rain Indicator
  0,                                      ! Snow Indicator
  21,                                     ! Day of Month
  8,                                      ! Month
  SummerDesignDay,                        ! Day Type
  0,                                      ! Daylight Saving Time Indicator
  Dewpoint,                               ! Humidity Indicating Type
  ,                                       ! Humidity Indicating Day Schedule Name
  DefaultMultipliers,                     ! Dry-Bulb Temperature Range Modifier Type
  ,                                       ! Dry-Bulb Temperature Range Modifier Schedule Name
  ASHRAETau,                              ! Solar Model Indicator
  ,                                       ! Beam Solar Day Schedule Name
  ,                                       ! Diffuse Solar Day Schedule Name
  0.36,                                   ! ASHRAE Taub {dimensionless}
  2.544;                                  ! ASHRAE Taud {dimensionless}

OS:ComponentData,
  {d71275e7-3b80-424d-8758-699c1ac0db1b}, ! Handle
  Component Data 1,                       ! Name
  {accbe9a9-f541-4945-a7f6-b41e0710359c}, ! UUID
  {eeeb75c1-939f-426e-839c-0a5ed74a3879}, ! Version UUID
  1366311293,                             ! Creation Timestamp
  1366311293,                             ! Version Timestamp
  {f061f2c5-f6e1-440b-b975-7642e6c9ba49}; ! Name of Object 1

