
OS:Version,
  {18b48576-c74f-4390-83a1-788147cbbe43}, ! Handle
  0.9.3;                                  ! Version Identifier

OS:SizingPeriod:DesignDay,
  {a6e04d73-0be1-4258-bbef-06d89953a1c5}, ! Handle
  Dothan Municipal Ap Ann Htg 99.6% Condns DB, ! Name
  -2.6,                                   ! Maximum Dry-Bulb Temperature {C}
  0,                                      ! Daily Dry-Bulb Temperature Range {deltaC}
  -2.6,                                   ! Humidity Indicating Conditions at Maximum Dry-Bulb {BasedOnField A3}
  100153,                                 ! Barometric Pressure {Pa}
  3.7,                                    ! Wind Speed {m/s}
  320,                                    ! Wind Direction {deg}
  0,                                      ! Sky Clearness
  0,                                      ! Rain Indicator
  0,                                      ! Snow Indicator
  21,                                     ! Day of Month
  1,                                      ! Month
  WinterDesignDay,                        ! Day Type
  0,                                      ! Daylight Saving Time Indicator
  Wetbulb,                                ! Humidity Indicating Type
  ,                                       ! Humidity Indicating Day Schedule Name
  DefaultMultipliers,                     ! Dry-Bulb Temperature Range Modifier Type
  ,                                       ! Dry-Bulb Temperature Range Modifier Schedule Name
  ASHRAEClearSky;                         ! Solar Model Indicator

OS:ComponentData,
  {a431ac0d-abce-4016-92d5-345889677cbd}, ! Handle
  Component Data 1,                       ! Name
  {f57c6d05-696c-4a45-b582-ca67dc96ddc3}, ! UUID
  {39472434-0db3-4ac8-8805-5937d150f5c7}, ! Version UUID
  1366305651,                             ! Creation Timestamp
  1366305651,                             ! Version Timestamp
  {a6e04d73-0be1-4258-bbef-06d89953a1c5}; ! Name of Object 1

