
OS:Version,
  {8060030b-26e6-4e18-8af5-b58461351c1c}, ! Handle
  0.9.3;                                  ! Version Identifier

OS:SizingPeriod:DesignDay,
  {27fa456d-9276-4490-b301-7de1f5a559be}, ! Handle
  Huntsville Intl Jones Field Ann Clg .4% Condns WB=>MDB, ! Name
  31.2,                                   ! Maximum Dry-Bulb Temperature {C}
  10.4,                                   ! Daily Dry-Bulb Temperature Range {deltaC}
  25.7,                                   ! Humidity Indicating Conditions at Maximum Dry-Bulb {BasedOnField A3}
  99063,                                  ! Barometric Pressure {Pa}
  3.6,                                    ! Wind Speed {m/s}
  270,                                    ! Wind Direction {deg}
  0,                                      ! Sky Clearness
  0,                                      ! Rain Indicator
  0,                                      ! Snow Indicator
  21,                                     ! Day of Month
  7,                                      ! Month
  SummerDesignDay,                        ! Day Type
  0,                                      ! Daylight Saving Time Indicator
  Wetbulb,                                ! Humidity Indicating Type
  ,                                       ! Humidity Indicating Day Schedule Name
  DefaultMultipliers,                     ! Dry-Bulb Temperature Range Modifier Type
  ,                                       ! Dry-Bulb Temperature Range Modifier Schedule Name
  ASHRAETau,                              ! Solar Model Indicator
  ,                                       ! Beam Solar Day Schedule Name
  ,                                       ! Diffuse Solar Day Schedule Name
  0.552,                                  ! ASHRAE Taub {dimensionless}
  1.785;                                  ! ASHRAE Taud {dimensionless}

OS:ComponentData,
  {3c6b8aaf-59c1-410f-b5cd-8676c0a16ab5}, ! Handle
  Component Data 1,                       ! Name
  {fec056dc-ce47-45a4-b9c4-25bc51241991}, ! UUID
  {8b2cabfc-be41-4cf5-ad4d-2e287b0aee1f}, ! Version UUID
  1366305671,                             ! Creation Timestamp
  1366305671,                             ! Version Timestamp
  {27fa456d-9276-4490-b301-7de1f5a559be}; ! Name of Object 1

