
OS:Version,
  {f5cedb36-76ee-4533-b531-9ebdfbb2e17e}, ! Handle
  0.9.3;                                  ! Version Identifier

OS:SizingPeriod:DesignDay,
  {932634ef-7750-441d-9096-b848a7f673fb}, ! Handle
  Hobart Municipal Ap Ann Htg 99.6% Condns DB, ! Name
  -10.3,                                  ! Maximum Dry-Bulb Temperature {C}
  0,                                      ! Daily Dry-Bulb Temperature Range {deltaC}
  -10.3,                                  ! Humidity Indicating Conditions at Maximum Dry-Bulb {BasedOnField A3}
  95713,                                  ! Barometric Pressure {Pa}
  5.3,                                    ! Wind Speed {m/s}
  20,                                     ! Wind Direction {deg}
  0,                                      ! Sky Clearness
  0,                                      ! Rain Indicator
  0,                                      ! Snow Indicator
  21,                                     ! Day of Month
  1,                                      ! Month
  WinterDesignDay,                        ! Day Type
  0,                                      ! Daylight Saving Time Indicator
  Wetbulb,                                ! Humidity Indicating Type
  ,                                       ! Humidity Indicating Day Schedule Name
  DefaultMultipliers,                     ! Dry-Bulb Temperature Range Modifier Type
  ,                                       ! Dry-Bulb Temperature Range Modifier Schedule Name
  ASHRAEClearSky;                         ! Solar Model Indicator

OS:ComponentData,
  {d655eea7-015a-4b6a-a7b2-3a06553fb9b4}, ! Handle
  Component Data 1,                       ! Name
  {896d87b4-d4eb-48c0-9df3-5a7aed8e7ba4}, ! UUID
  {79cf6603-bf2a-4f85-931f-b57414040afc}, ! Version UUID
  1366309897,                             ! Creation Timestamp
  1366309897,                             ! Version Timestamp
  {932634ef-7750-441d-9096-b848a7f673fb}; ! Name of Object 1

