
OS:Version,
  {06f37391-7ab7-4ca8-bc4b-82935382db70}, ! Handle
  0.9.3;                                  ! Version Identifier

OS:SizingPeriod:DesignDay,
  {e13a83b7-a1a2-4581-8a10-f9a833504a1a}, ! Handle
  Detroit Willow Run Ap Ann Clg 1% Condns DP=>MDB, ! Name
  26.8,                                   ! Maximum Dry-Bulb Temperature {C}
  11.2,                                   ! Daily Dry-Bulb Temperature Range {deltaC}
  22.4,                                   ! Humidity Indicating Conditions at Maximum Dry-Bulb {BasedOnField A3}
  98733,                                  ! Barometric Pressure {Pa}
  5.3,                                    ! Wind Speed {m/s}
  230,                                    ! Wind Direction {deg}
  0,                                      ! Sky Clearness
  0,                                      ! Rain Indicator
  0,                                      ! Snow Indicator
  21,                                     ! Day of Month
  7,                                      ! Month
  SummerDesignDay,                        ! Day Type
  0,                                      ! Daylight Saving Time Indicator
  Dewpoint,                               ! Humidity Indicating Type
  ,                                       ! Humidity Indicating Day Schedule Name
  DefaultMultipliers,                     ! Dry-Bulb Temperature Range Modifier Type
  ,                                       ! Dry-Bulb Temperature Range Modifier Schedule Name
  ASHRAETau,                              ! Solar Model Indicator
  ,                                       ! Beam Solar Day Schedule Name
  ,                                       ! Diffuse Solar Day Schedule Name
  0.465,                                  ! ASHRAE Taub {dimensionless}
  1.99;                                   ! ASHRAE Taud {dimensionless}

OS:ComponentData,
  {09401f2b-f940-48c2-8104-584cda887549}, ! Handle
  Component Data 1,                       ! Name
  {c58f4768-b9b5-4482-8be5-d1b56a9c4699}, ! UUID
  {2ae94d83-b636-416d-9961-911d277b979d}, ! Version UUID
  1366307985,                             ! Creation Timestamp
  1366307985,                             ! Version Timestamp
  {e13a83b7-a1a2-4581-8a10-f9a833504a1a}; ! Name of Object 1

