
OS:Version,
  {ca50c1ce-ab3f-4c98-bc2f-e041d6d0aa68}, ! Handle
  0.9.3;                                  ! Version Identifier

OS:SizingPeriod:DesignDay,
  {77f5846f-fd1d-4143-9d2c-6485f370b4a5}, ! Handle
  Kenai Municipal Ap Ann Clg 2% Condns WB=>MDB, ! Name
  16.5,                                   ! Maximum Dry-Bulb Temperature {C}
  7.5,                                    ! Daily Dry-Bulb Temperature Range {deltaC}
  13.5,                                   ! Humidity Indicating Conditions at Maximum Dry-Bulb {BasedOnField A3}
  101013,                                 ! Barometric Pressure {Pa}
  4,                                      ! Wind Speed {m/s}
  270,                                    ! Wind Direction {deg}
  0,                                      ! Sky Clearness
  0,                                      ! Rain Indicator
  0,                                      ! Snow Indicator
  21,                                     ! Day of Month
  7,                                      ! Month
  SummerDesignDay,                        ! Day Type
  0,                                      ! Daylight Saving Time Indicator
  Wetbulb,                                ! Humidity Indicating Type
  ,                                       ! Humidity Indicating Day Schedule Name
  DefaultMultipliers,                     ! Dry-Bulb Temperature Range Modifier Type
  ,                                       ! Dry-Bulb Temperature Range Modifier Schedule Name
  ASHRAETau,                              ! Solar Model Indicator
  ,                                       ! Beam Solar Day Schedule Name
  ,                                       ! Diffuse Solar Day Schedule Name
  0.371,                                  ! ASHRAE Taub {dimensionless}
  2.246;                                  ! ASHRAE Taud {dimensionless}

