
OS:Version,
  {1dfec8e8-917e-4d0d-b83d-39744b9fd98d}, ! Handle
  0.9.3;                                  ! Version Identifier

OS:SizingPeriod:DesignDay,
  {b3a79e96-175c-4041-a5e6-9875f0a92f13}, ! Handle
  Lafayette Regional Ap Ann Clg 2% Condns WB=>MDB, ! Name
  30.9,                                   ! Maximum Dry-Bulb Temperature {C}
  8.9,                                    ! Daily Dry-Bulb Temperature Range {deltaC}
  26.3,                                   ! Humidity Indicating Conditions at Maximum Dry-Bulb {BasedOnField A3}
  101181,                                 ! Barometric Pressure {Pa}
  3.5,                                    ! Wind Speed {m/s}
  110,                                    ! Wind Direction {deg}
  0,                                      ! Sky Clearness
  0,                                      ! Rain Indicator
  0,                                      ! Snow Indicator
  21,                                     ! Day of Month
  7,                                      ! Month
  SummerDesignDay,                        ! Day Type
  0,                                      ! Daylight Saving Time Indicator
  Wetbulb,                                ! Humidity Indicating Type
  ,                                       ! Humidity Indicating Day Schedule Name
  DefaultMultipliers,                     ! Dry-Bulb Temperature Range Modifier Type
  ,                                       ! Dry-Bulb Temperature Range Modifier Schedule Name
  ASHRAETau,                              ! Solar Model Indicator
  ,                                       ! Beam Solar Day Schedule Name
  ,                                       ! Diffuse Solar Day Schedule Name
  0.532,                                  ! ASHRAE Taub {dimensionless}
  1.875;                                  ! ASHRAE Taud {dimensionless}

OS:ComponentData,
  {ff797100-f860-44de-908e-1aae5bfb8a6b}, ! Handle
  Component Data 1,                       ! Name
  {b5d7b358-e5dc-4988-a445-7c4471ff1586}, ! UUID
  {ab6c2023-ab64-46ef-945c-d83d91f2d338}, ! Version UUID
  1366307720,                             ! Creation Timestamp
  1366307720,                             ! Version Timestamp
  {b3a79e96-175c-4041-a5e6-9875f0a92f13}; ! Name of Object 1

