
OS:Version,
  {331aa9b9-981e-4b41-a02b-3b0e73128cef}, ! Handle
  0.9.3;                                  ! Version Identifier

OS:SizingPeriod:DesignDay,
  {5409e60e-631c-497e-9939-cd3b255b9882}, ! Handle
  Greer GreenvL Spartanbrg Ap Ann Clg 1% Condns DP=>MDB, ! Name
  26.4,                                   ! Maximum Dry-Bulb Temperature {C}
  10.6,                                   ! Daily Dry-Bulb Temperature Range {deltaC}
  22.8,                                   ! Humidity Indicating Conditions at Maximum Dry-Bulb {BasedOnField A3}
  97866,                                  ! Barometric Pressure {Pa}
  3.6,                                    ! Wind Speed {m/s}
  230,                                    ! Wind Direction {deg}
  0,                                      ! Sky Clearness
  0,                                      ! Rain Indicator
  0,                                      ! Snow Indicator
  21,                                     ! Day of Month
  7,                                      ! Month
  SummerDesignDay,                        ! Day Type
  0,                                      ! Daylight Saving Time Indicator
  Dewpoint,                               ! Humidity Indicating Type
  ,                                       ! Humidity Indicating Day Schedule Name
  DefaultMultipliers,                     ! Dry-Bulb Temperature Range Modifier Type
  ,                                       ! Dry-Bulb Temperature Range Modifier Schedule Name
  ASHRAETau,                              ! Solar Model Indicator
  ,                                       ! Beam Solar Day Schedule Name
  ,                                       ! Diffuse Solar Day Schedule Name
  0.545,                                  ! ASHRAE Taub {dimensionless}
  1.796;                                  ! ASHRAE Taud {dimensionless}

OS:ComponentData,
  {dc1af014-6210-494e-bba7-a1aec09f0cee}, ! Handle
  Component Data 1,                       ! Name
  {25c10b93-f45e-4ab1-9772-bc457bd31e63}, ! UUID
  {fc815efd-9eb7-4089-8bce-898574e35fa6}, ! Version UUID
  1366310369,                             ! Creation Timestamp
  1366310369,                             ! Version Timestamp
  {5409e60e-631c-497e-9939-cd3b255b9882}; ! Name of Object 1

