
OS:Version,
  {a8b3a205-a398-40e4-909a-83afeefbbfdf}, ! Handle
  0.9.3;                                  ! Version Identifier

OS:SizingPeriod:DesignDay,
  {81164065-3244-4b7b-a194-079632512c24}, ! Handle
  Coeur D Alene Awos Ann Clg .4% Condns DP=>MDB, ! Name
  21.6,                                   ! Maximum Dry-Bulb Temperature {C}
  15.6,                                   ! Daily Dry-Bulb Temperature Range {deltaC}
  14.1,                                   ! Humidity Indicating Conditions at Maximum Dry-Bulb {BasedOnField A3}
  93115,                                  ! Barometric Pressure {Pa}
  2.8,                                    ! Wind Speed {m/s}
  250,                                    ! Wind Direction {deg}
  0,                                      ! Sky Clearness
  0,                                      ! Rain Indicator
  0,                                      ! Snow Indicator
  21,                                     ! Day of Month
  7,                                      ! Month
  SummerDesignDay,                        ! Day Type
  0,                                      ! Daylight Saving Time Indicator
  Dewpoint,                               ! Humidity Indicating Type
  ,                                       ! Humidity Indicating Day Schedule Name
  DefaultMultipliers,                     ! Dry-Bulb Temperature Range Modifier Type
  ,                                       ! Dry-Bulb Temperature Range Modifier Schedule Name
  ASHRAETau,                              ! Solar Model Indicator
  ,                                       ! Beam Solar Day Schedule Name
  ,                                       ! Diffuse Solar Day Schedule Name
  0.345,                                  ! ASHRAE Taub {dimensionless}
  2.481;                                  ! ASHRAE Taud {dimensionless}

OS:ComponentData,
  {bdf21b0b-d9b8-42af-87d6-f77e12c7d0c8}, ! Handle
  Component Data 1,                       ! Name
  {19678d40-ecbd-4eb0-ad96-59062da841c4}, ! UUID
  {fa90473c-5dce-4530-9fb2-14f77b79a38d}, ! Version UUID
  1366307281,                             ! Creation Timestamp
  1366307281,                             ! Version Timestamp
  {81164065-3244-4b7b-a194-079632512c24}; ! Name of Object 1

