
OS:Version,
  {d70d9bab-83ac-466e-8576-e63e49a56152}, ! Handle
  0.9.3;                                  ! Version Identifier

OS:SizingPeriod:DesignDay,
  {cd7e6cd2-42c8-46ee-a717-290765ba215e}, ! Handle
  Lansing Capital City Arpt Ann Clg .4% Condns WB=>MDB, ! Name
  29.7,                                   ! Maximum Dry-Bulb Temperature {C}
  12,                                     ! Daily Dry-Bulb Temperature Range {deltaC}
  24.7,                                   ! Humidity Indicating Conditions at Maximum Dry-Bulb {BasedOnField A3}
  98287,                                  ! Barometric Pressure {Pa}
  5.6,                                    ! Wind Speed {m/s}
  240,                                    ! Wind Direction {deg}
  0,                                      ! Sky Clearness
  0,                                      ! Rain Indicator
  0,                                      ! Snow Indicator
  21,                                     ! Day of Month
  7,                                      ! Month
  SummerDesignDay,                        ! Day Type
  0,                                      ! Daylight Saving Time Indicator
  Wetbulb,                                ! Humidity Indicating Type
  ,                                       ! Humidity Indicating Day Schedule Name
  DefaultMultipliers,                     ! Dry-Bulb Temperature Range Modifier Type
  ,                                       ! Dry-Bulb Temperature Range Modifier Schedule Name
  ASHRAETau,                              ! Solar Model Indicator
  ,                                       ! Beam Solar Day Schedule Name
  ,                                       ! Diffuse Solar Day Schedule Name
  0.429,                                  ! ASHRAE Taub {dimensionless}
  2.133;                                  ! ASHRAE Taud {dimensionless}

OS:ComponentData,
  {5c7e382b-7ced-4b6b-9ffc-fef0c37199d8}, ! Handle
  Component Data 1,                       ! Name
  {e409a675-a496-4138-9b62-045d92195183}, ! UUID
  {bd4edf86-53b9-4c06-b9a1-142f804469c6}, ! Version UUID
  1366308053,                             ! Creation Timestamp
  1366308053,                             ! Version Timestamp
  {cd7e6cd2-42c8-46ee-a717-290765ba215e}; ! Name of Object 1

