
OS:Version,
  {231d991a-f50a-40db-852d-45a610b8f774}, ! Handle
  0.9.3;                                  ! Version Identifier

OS:SizingPeriod:DesignDay,
  {373dd3dc-0ea4-4e66-a50d-028903ccf3c8}, ! Handle
  Jonesboro Muni Ann Clg 2% Condns DB=>MWB, ! Name
  33.1,                                   ! Maximum Dry-Bulb Temperature {C}
  10.3,                                   ! Daily Dry-Bulb Temperature Range {deltaC}
  24.3,                                   ! Humidity Indicating Conditions at Maximum Dry-Bulb {BasedOnField A3}
  100344,                                 ! Barometric Pressure {Pa}
  4.1,                                    ! Wind Speed {m/s}
  200,                                    ! Wind Direction {deg}
  0,                                      ! Sky Clearness
  0,                                      ! Rain Indicator
  0,                                      ! Snow Indicator
  21,                                     ! Day of Month
  7,                                      ! Month
  SummerDesignDay,                        ! Day Type
  0,                                      ! Daylight Saving Time Indicator
  Wetbulb,                                ! Humidity Indicating Type
  ,                                       ! Humidity Indicating Day Schedule Name
  DefaultMultipliers,                     ! Dry-Bulb Temperature Range Modifier Type
  ,                                       ! Dry-Bulb Temperature Range Modifier Schedule Name
  ASHRAETau,                              ! Solar Model Indicator
  ,                                       ! Beam Solar Day Schedule Name
  ,                                       ! Diffuse Solar Day Schedule Name
  0.504,                                  ! ASHRAE Taub {dimensionless}
  1.912;                                  ! ASHRAE Taud {dimensionless}

OS:ComponentData,
  {70393fb3-a29a-43f2-831e-b0b94773f3ad}, ! Handle
  Component Data 1,                       ! Name
  {07ae20f1-90ef-47c7-9f96-bd52b85daf8a}, ! UUID
  {65d83dbe-8f7e-404f-8c42-8d217ff32900}, ! Version UUID
  1366306220,                             ! Creation Timestamp
  1366306220,                             ! Version Timestamp
  {373dd3dc-0ea4-4e66-a50d-028903ccf3c8}; ! Name of Object 1

