
OS:Version,
  {6b6bdd15-d780-4eff-9026-2b65a393d614}, ! Handle
  0.9.3;                                  ! Version Identifier

OS:SizingPeriod:DesignDay,
  {5362dda5-3fd1-4a0f-9a72-dcb4e4986b84}, ! Handle
  Kingman  Amos Ann Clg .4% Condns WB=>MDB, ! Name
  30.5,                                   ! Maximum Dry-Bulb Temperature {C}
  14.3,                                   ! Daily Dry-Bulb Temperature Range {deltaC}
  21.3,                                   ! Humidity Indicating Conditions at Maximum Dry-Bulb {BasedOnField A3}
  89515,                                  ! Barometric Pressure {Pa}
  6.1,                                    ! Wind Speed {m/s}
  230,                                    ! Wind Direction {deg}
  0,                                      ! Sky Clearness
  0,                                      ! Rain Indicator
  0,                                      ! Snow Indicator
  21,                                     ! Day of Month
  7,                                      ! Month
  SummerDesignDay,                        ! Day Type
  0,                                      ! Daylight Saving Time Indicator
  Wetbulb,                                ! Humidity Indicating Type
  ,                                       ! Humidity Indicating Day Schedule Name
  DefaultMultipliers,                     ! Dry-Bulb Temperature Range Modifier Type
  ,                                       ! Dry-Bulb Temperature Range Modifier Schedule Name
  ASHRAETau,                              ! Solar Model Indicator
  ,                                       ! Beam Solar Day Schedule Name
  ,                                       ! Diffuse Solar Day Schedule Name
  0.477,                                  ! ASHRAE Taub {dimensionless}
  1.865;                                  ! ASHRAE Taud {dimensionless}

OS:ComponentData,
  {71aea0fa-0a6b-4ab9-82fd-72b32acc08bb}, ! Handle
  Component Data 1,                       ! Name
  {a84a27a4-9453-43eb-b1ab-95fa032ef105}, ! UUID
  {e25e5f2b-4e7b-4e8e-8a0d-0b19149f8352}, ! Version UUID
  1366306280,                             ! Creation Timestamp
  1366306280,                             ! Version Timestamp
  {5362dda5-3fd1-4a0f-9a72-dcb4e4986b84}; ! Name of Object 1

