
OS:Version,
  {22a571d5-eaca-441e-89d8-feeceaba6d72}, ! Handle
  0.9.3;                                  ! Version Identifier

OS:SizingPeriod:DesignDay,
  {93d6aa71-a974-4cda-823f-280692cf78fb}, ! Handle
  Bakersfield Meadows Field Ann Clg .4% Condns DP=>MDB, ! Name
  30.3,                                   ! Maximum Dry-Bulb Temperature {C}
  14.9,                                   ! Daily Dry-Bulb Temperature Range {deltaC}
  18.9,                                   ! Humidity Indicating Conditions at Maximum Dry-Bulb {BasedOnField A3}
  99548,                                  ! Barometric Pressure {Pa}
  5.3,                                    ! Wind Speed {m/s}
  300,                                    ! Wind Direction {deg}
  0,                                      ! Sky Clearness
  0,                                      ! Rain Indicator
  0,                                      ! Snow Indicator
  21,                                     ! Day of Month
  7,                                      ! Month
  SummerDesignDay,                        ! Day Type
  0,                                      ! Daylight Saving Time Indicator
  Dewpoint,                               ! Humidity Indicating Type
  ,                                       ! Humidity Indicating Day Schedule Name
  DefaultMultipliers,                     ! Dry-Bulb Temperature Range Modifier Type
  ,                                       ! Dry-Bulb Temperature Range Modifier Schedule Name
  ASHRAETau,                              ! Solar Model Indicator
  ,                                       ! Beam Solar Day Schedule Name
  ,                                       ! Diffuse Solar Day Schedule Name
  0.438,                                  ! ASHRAE Taub {dimensionless}
  2.106;                                  ! ASHRAE Taud {dimensionless}

OS:ComponentData,
  {54ec2488-fdb8-4119-b884-4e2a98225c11}, ! Handle
  Component Data 1,                       ! Name
  {67ac5c11-97bc-433b-9ce4-81f4f7d545ee}, ! UUID
  {7f52f8c9-3e36-4535-a64e-d41f06a71f85}, ! Version UUID
  1366306365,                             ! Creation Timestamp
  1366306365,                             ! Version Timestamp
  {93d6aa71-a974-4cda-823f-280692cf78fb}; ! Name of Object 1

