
OS:Version,
  {cc352e85-486a-4e89-adb0-2368811ed70b}, ! Handle
  0.9.3;                                  ! Version Identifier

OS:SizingPeriod:DesignDay,
  {443eadb0-6377-4090-a169-846f2724dbd5}, ! Handle
  Binghamton Ann Clg 2% Condns DB=>MWB,   ! Name
  26.7,                                   ! Maximum Dry-Bulb Temperature {C}
  9.7,                                    ! Daily Dry-Bulb Temperature Range {deltaC}
  19.5,                                   ! Humidity Indicating Conditions at Maximum Dry-Bulb {BasedOnField A3}
  95495,                                  ! Barometric Pressure {Pa}
  4.6,                                    ! Wind Speed {m/s}
  240,                                    ! Wind Direction {deg}
  0,                                      ! Sky Clearness
  0,                                      ! Rain Indicator
  0,                                      ! Snow Indicator
  21,                                     ! Day of Month
  7,                                      ! Month
  SummerDesignDay,                        ! Day Type
  0,                                      ! Daylight Saving Time Indicator
  Wetbulb,                                ! Humidity Indicating Type
  ,                                       ! Humidity Indicating Day Schedule Name
  DefaultMultipliers,                     ! Dry-Bulb Temperature Range Modifier Type
  ,                                       ! Dry-Bulb Temperature Range Modifier Schedule Name
  ASHRAETau,                              ! Solar Model Indicator
  ,                                       ! Beam Solar Day Schedule Name
  ,                                       ! Diffuse Solar Day Schedule Name
  0.452,                                  ! ASHRAE Taub {dimensionless}
  2.004;                                  ! ASHRAE Taud {dimensionless}

OS:ComponentData,
  {fcbd35e0-4ce8-40d4-9379-951b72d1acfe}, ! Handle
  Component Data 1,                       ! Name
  {39a68416-b437-4a1d-a281-2c32658a78bd}, ! UUID
  {1644b00a-e212-4916-8f84-090fc02da9e5}, ! Version UUID
  1366309589,                             ! Creation Timestamp
  1366309589,                             ! Version Timestamp
  {443eadb0-6377-4090-a169-846f2724dbd5}; ! Name of Object 1

