
OS:Version,
  {1c91b23c-b0ca-4801-a755-796556d8c187}, ! Handle
  0.9.3;                                  ! Version Identifier

OS:SizingPeriod:DesignDay,
  {5da20b0c-0709-465f-ab2b-5d5db0819a4b}, ! Handle
  Lewiston Nez Perce Cnty Ap Ann Clg .4% Condns Enth=>MDB, ! Name
  33.5,                                   ! Maximum Dry-Bulb Temperature {C}
  15,                                     ! Daily Dry-Bulb Temperature Range {deltaC}
  58000,                                  ! Humidity Indicating Conditions at Maximum Dry-Bulb {BasedOnField A3}
  96173,                                  ! Barometric Pressure {Pa}
  3,                                      ! Wind Speed {m/s}
  320,                                    ! Wind Direction {deg}
  0,                                      ! Sky Clearness
  0,                                      ! Rain Indicator
  0,                                      ! Snow Indicator
  21,                                     ! Day of Month
  7,                                      ! Month
  SummerDesignDay,                        ! Day Type
  0,                                      ! Daylight Saving Time Indicator
  Enthalpy,                               ! Humidity Indicating Type
  ,                                       ! Humidity Indicating Day Schedule Name
  DefaultMultipliers,                     ! Dry-Bulb Temperature Range Modifier Type
  ,                                       ! Dry-Bulb Temperature Range Modifier Schedule Name
  ASHRAETau,                              ! Solar Model Indicator
  ,                                       ! Beam Solar Day Schedule Name
  ,                                       ! Diffuse Solar Day Schedule Name
  0.393,                                  ! ASHRAE Taub {dimensionless}
  2.242;                                  ! ASHRAE Taud {dimensionless}

OS:ComponentData,
  {a052babd-6445-4ccf-81c6-1f7f36d33ab0}, ! Handle
  Component Data 1,                       ! Name
  {0e27904a-73c6-4a63-b40f-794102265943}, ! UUID
  {c2875059-dfe8-43b4-bdbd-0f9177f9078b}, ! Version UUID
  1366307292,                             ! Creation Timestamp
  1366307292,                             ! Version Timestamp
  {5da20b0c-0709-465f-ab2b-5d5db0819a4b}; ! Name of Object 1

