
OS:Version,
  {79fefa0a-cd7c-498b-afae-f7a0c4fb08ba}, ! Handle
  0.9.3;                                  ! Version Identifier

OS:SizingPeriod:DesignDay,
  {87ced794-e60a-4316-be1f-83efdda8b6e4}, ! Handle
  Glasgow Intl Arpt Ann Hum_n 99.6% Condns DP=>MCDB, ! Name
  -29.7,                                  ! Maximum Dry-Bulb Temperature {C}
  0,                                      ! Daily Dry-Bulb Temperature Range {deltaC}
  -34.1,                                  ! Humidity Indicating Conditions at Maximum Dry-Bulb {BasedOnField A3}
  93205,                                  ! Barometric Pressure {Pa}
  3.3,                                    ! Wind Speed {m/s}
  340,                                    ! Wind Direction {deg}
  0,                                      ! Sky Clearness
  0,                                      ! Rain Indicator
  0,                                      ! Snow Indicator
  21,                                     ! Day of Month
  1,                                      ! Month
  WinterDesignDay,                        ! Day Type
  0,                                      ! Daylight Saving Time Indicator
  Dewpoint,                               ! Humidity Indicating Type
  ,                                       ! Humidity Indicating Day Schedule Name
  DefaultMultipliers,                     ! Dry-Bulb Temperature Range Modifier Type
  ,                                       ! Dry-Bulb Temperature Range Modifier Schedule Name
  ASHRAEClearSky;                         ! Solar Model Indicator

OS:ComponentData,
  {d8cc891c-ed66-4b46-bc97-7d4bbc743595}, ! Handle
  Component Data 1,                       ! Name
  {85431727-7c9a-495b-ac09-1e0aed254d14}, ! UUID
  {4141467b-e253-487d-b448-ce299eaf0b9b}, ! Version UUID
  1366308763,                             ! Creation Timestamp
  1366308763,                             ! Version Timestamp
  {87ced794-e60a-4316-be1f-83efdda8b6e4}; ! Name of Object 1

