
OS:Version,
  {ec29f622-9ff6-49e6-bab6-ce23e22a17c5}, ! Handle
  0.9.3;                                  ! Version Identifier

OS:SizingPeriod:DesignDay,
  {992720dd-6b23-4c9b-89f2-ed42a7b54c28}, ! Handle
  Belmar Asc Ann Htg Wind 99.6% Condns WS=>MCDB, ! Name
  0.3,                                    ! Maximum Dry-Bulb Temperature {C}
  0,                                      ! Daily Dry-Bulb Temperature Range {deltaC}
  0.3,                                    ! Humidity Indicating Conditions at Maximum Dry-Bulb {BasedOnField A3}
  101013,                                 ! Barometric Pressure {Pa}
  13.3,                                   ! Wind Speed {m/s}
  320,                                    ! Wind Direction {deg}
  0,                                      ! Sky Clearness
  0,                                      ! Rain Indicator
  0,                                      ! Snow Indicator
  21,                                     ! Day of Month
  1,                                      ! Month
  WinterDesignDay,                        ! Day Type
  0,                                      ! Daylight Saving Time Indicator
  Wetbulb,                                ! Humidity Indicating Type
  ,                                       ! Humidity Indicating Day Schedule Name
  DefaultMultipliers,                     ! Dry-Bulb Temperature Range Modifier Type
  ,                                       ! Dry-Bulb Temperature Range Modifier Schedule Name
  ASHRAEClearSky;                         ! Solar Model Indicator

OS:ComponentData,
  {0897f226-7421-436c-92a6-f5d95fd9b5a0}, ! Handle
  Component Data 1,                       ! Name
  {4c730dd7-3a0f-4cca-8df7-e3dfd8e4d158}, ! UUID
  {d460fd5f-5aa9-4dea-b1ce-b672f48a463a}, ! Version UUID
  1366309293,                             ! Creation Timestamp
  1366309293,                             ! Version Timestamp
  {992720dd-6b23-4c9b-89f2-ed42a7b54c28}; ! Name of Object 1

