
OS:Version,
  {99618de7-1286-45eb-9b37-13a35cf9a105}, ! Handle
  0.9.3;                                  ! Version Identifier

OS:SizingPeriod:DesignDay,
  {bfbee8bd-9f71-43ee-a88e-046739a91f79}, ! Handle
  KALISPELL Ann Htg Wind 99.6% Condns WS=>MCDB, ! Name
  -15.2,                                  ! Maximum Dry-Bulb Temperature {C}
  0,                                      ! Daily Dry-Bulb Temperature Range {deltaC}
  -15.2,                                  ! Humidity Indicating Conditions at Maximum Dry-Bulb {BasedOnField A3}
  90926,                                  ! Barometric Pressure {Pa}
  12.7,                                   ! Wind Speed {m/s}
  30,                                     ! Wind Direction {deg}
  0,                                      ! Sky Clearness
  0,                                      ! Rain Indicator
  0,                                      ! Snow Indicator
  21,                                     ! Day of Month
  12,                                     ! Month
  WinterDesignDay,                        ! Day Type
  0,                                      ! Daylight Saving Time Indicator
  Wetbulb,                                ! Humidity Indicating Type
  ,                                       ! Humidity Indicating Day Schedule Name
  DefaultMultipliers,                     ! Dry-Bulb Temperature Range Modifier Type
  ,                                       ! Dry-Bulb Temperature Range Modifier Schedule Name
  ASHRAEClearSky;                         ! Solar Model Indicator

OS:ComponentData,
  {d69e9fe0-0b33-40f1-8093-65bbb2c5de14}, ! Handle
  Component Data 1,                       ! Name
  {4cb876ba-da27-427e-acda-d3ebe91d0ee0}, ! UUID
  {f6c07c35-b2df-4748-a399-ae9dd33b81ed}, ! Version UUID
  1366308807,                             ! Creation Timestamp
  1366308807,                             ! Version Timestamp
  {bfbee8bd-9f71-43ee-a88e-046739a91f79}; ! Name of Object 1

