
OS:Version,
  {f7847f5b-957d-4d61-a4a4-e03877b9d8ea}, ! Handle
  0.9.3;                                  ! Version Identifier

OS:SizingPeriod:DesignDay,
  {f38aeeaa-ad2e-4933-b1bb-c76d85032535}, ! Handle
  Bozeman Gallatin Field Ann Clg 2% Condns WB=>MDB, ! Name
  26.6,                                   ! Maximum Dry-Bulb Temperature {C}
  18.3,                                   ! Daily Dry-Bulb Temperature Range {deltaC}
  16.2,                                   ! Humidity Indicating Conditions at Maximum Dry-Bulb {BasedOnField A3}
  86135,                                  ! Barometric Pressure {Pa}
  3.8,                                    ! Wind Speed {m/s}
  0,                                      ! Wind Direction {deg}
  0,                                      ! Sky Clearness
  0,                                      ! Rain Indicator
  0,                                      ! Snow Indicator
  21,                                     ! Day of Month
  7,                                      ! Month
  SummerDesignDay,                        ! Day Type
  0,                                      ! Daylight Saving Time Indicator
  Wetbulb,                                ! Humidity Indicating Type
  ,                                       ! Humidity Indicating Day Schedule Name
  DefaultMultipliers,                     ! Dry-Bulb Temperature Range Modifier Type
  ,                                       ! Dry-Bulb Temperature Range Modifier Schedule Name
  ASHRAETau,                              ! Solar Model Indicator
  ,                                       ! Beam Solar Day Schedule Name
  ,                                       ! Diffuse Solar Day Schedule Name
  0.384,                                  ! ASHRAE Taub {dimensionless}
  2.199;                                  ! ASHRAE Taud {dimensionless}

OS:ComponentData,
  {c9a259a1-0697-428f-9abb-fcaf1598ceff}, ! Handle
  Component Data 1,                       ! Name
  {55319b33-0cfe-4448-8ece-bb6d2cf18cb9}, ! UUID
  {7ae9663c-c630-411e-a7de-87b6538bd796}, ! Version UUID
  1366308719,                             ! Creation Timestamp
  1366308719,                             ! Version Timestamp
  {f38aeeaa-ad2e-4933-b1bb-c76d85032535}; ! Name of Object 1

