
OS:Version,
  {06b8e8f0-6c0b-447b-b64f-c50240a96e73}, ! Handle
  0.9.3;                                  ! Version Identifier

OS:SizingPeriod:DesignDay,
  {03b5ad4d-cf40-46f6-ba4a-613a780f80d2}, ! Handle
  Edwards Afb Ann Hum_n 99% Condns DP=>MCDB, ! Name
  6.3,                                    ! Maximum Dry-Bulb Temperature {C}
  0,                                      ! Daily Dry-Bulb Temperature Range {deltaC}
  -14.8,                                  ! Humidity Indicating Conditions at Maximum Dry-Bulb {BasedOnField A3}
  93126,                                  ! Barometric Pressure {Pa}
  2.1,                                    ! Wind Speed {m/s}
  250,                                    ! Wind Direction {deg}
  0,                                      ! Sky Clearness
  0,                                      ! Rain Indicator
  0,                                      ! Snow Indicator
  21,                                     ! Day of Month
  12,                                     ! Month
  WinterDesignDay,                        ! Day Type
  0,                                      ! Daylight Saving Time Indicator
  Dewpoint,                               ! Humidity Indicating Type
  ,                                       ! Humidity Indicating Day Schedule Name
  DefaultMultipliers,                     ! Dry-Bulb Temperature Range Modifier Type
  ,                                       ! Dry-Bulb Temperature Range Modifier Schedule Name
  ASHRAEClearSky;                         ! Solar Model Indicator

OS:ComponentData,
  {8d00b1ff-cbdb-4937-ad27-b92b810271a7}, ! Handle
  Component Data 1,                       ! Name
  {a9febcc4-ff57-4afe-86fe-c1a02e236e48}, ! UUID
  {37303e64-fb1e-47ca-9bb4-ef8379941e8f}, ! Version UUID
  1366306420,                             ! Creation Timestamp
  1366306420,                             ! Version Timestamp
  {03b5ad4d-cf40-46f6-ba4a-613a780f80d2}; ! Name of Object 1

