
OS:Version,
  {c41c21cf-880e-4fe1-b2e9-94903801080f}, ! Handle
  0.9.3;                                  ! Version Identifier

OS:SizingPeriod:DesignDay,
  {12d15f37-d90d-418d-9145-2cdaae67899d}, ! Handle
  Crane Lake  Awos Ann Hum_n 99.6% Condns DP=>MCDB, ! Name
  -30.4,                                  ! Maximum Dry-Bulb Temperature {C}
  0,                                      ! Daily Dry-Bulb Temperature Range {deltaC}
  -36,                                    ! Humidity Indicating Conditions at Maximum Dry-Bulb {BasedOnField A3}
  97190,                                  ! Barometric Pressure {Pa}
  0.1,                                    ! Wind Speed {m/s}
  250,                                    ! Wind Direction {deg}
  0,                                      ! Sky Clearness
  0,                                      ! Rain Indicator
  0,                                      ! Snow Indicator
  21,                                     ! Day of Month
  1,                                      ! Month
  WinterDesignDay,                        ! Day Type
  0,                                      ! Daylight Saving Time Indicator
  Dewpoint,                               ! Humidity Indicating Type
  ,                                       ! Humidity Indicating Day Schedule Name
  DefaultMultipliers,                     ! Dry-Bulb Temperature Range Modifier Type
  ,                                       ! Dry-Bulb Temperature Range Modifier Schedule Name
  ASHRAEClearSky;                         ! Solar Model Indicator

OS:ComponentData,
  {78d9867e-8d57-4cd9-b14c-facc8f4f3b43}, ! Handle
  Component Data 1,                       ! Name
  {301167fc-2a5d-4ec0-a448-1e7019fea46b}, ! UUID
  {c735898b-37b6-43d9-bf5b-f2d03586be8d}, ! Version UUID
  1366308184,                             ! Creation Timestamp
  1366308184,                             ! Version Timestamp
  {12d15f37-d90d-418d-9145-2cdaae67899d}; ! Name of Object 1

