
OS:Version,
  {93909f23-76d5-4636-a10b-71f322bf268c}, ! Handle
  0.9.3;                                  ! Version Identifier

OS:SizingPeriod:DesignDay,
  {4bb30726-a2ab-4c9a-915d-500cac2909eb}, ! Handle
  Blue Canyon Ap Ann Clg 2% Condns DP=>MDB, ! Name
  20.7,                                   ! Maximum Dry-Bulb Temperature {C}
  8,                                      ! Daily Dry-Bulb Temperature Range {deltaC}
  10.6,                                   ! Humidity Indicating Conditions at Maximum Dry-Bulb {BasedOnField A3}
  83431,                                  ! Barometric Pressure {Pa}
  2.6,                                    ! Wind Speed {m/s}
  280,                                    ! Wind Direction {deg}
  0,                                      ! Sky Clearness
  0,                                      ! Rain Indicator
  0,                                      ! Snow Indicator
  21,                                     ! Day of Month
  7,                                      ! Month
  SummerDesignDay,                        ! Day Type
  0,                                      ! Daylight Saving Time Indicator
  Dewpoint,                               ! Humidity Indicating Type
  ,                                       ! Humidity Indicating Day Schedule Name
  DefaultMultipliers,                     ! Dry-Bulb Temperature Range Modifier Type
  ,                                       ! Dry-Bulb Temperature Range Modifier Schedule Name
  ASHRAETau,                              ! Solar Model Indicator
  ,                                       ! Beam Solar Day Schedule Name
  ,                                       ! Diffuse Solar Day Schedule Name
  0.324,                                  ! ASHRAE Taub {dimensionless}
  2.564;                                  ! ASHRAE Taud {dimensionless}

