
OS:Version,
  {eeafd134-1070-4954-a233-8c29c712ebad}, ! Handle
  0.9.3;                                  ! Version Identifier

OS:SizingPeriod:DesignDay,
  {c9495488-4700-4001-bffc-c25993fa3f51}, ! Handle
  Hutchinson  Awos Ann Clg 2% Condns WB=>MDB, ! Name
  26.8,                                   ! Maximum Dry-Bulb Temperature {C}
  10.9,                                   ! Daily Dry-Bulb Temperature Range {deltaC}
  23,                                     ! Humidity Indicating Conditions at Maximum Dry-Bulb {BasedOnField A3}
  97504,                                  ! Barometric Pressure {Pa}
  4.5,                                    ! Wind Speed {m/s}
  170,                                    ! Wind Direction {deg}
  0,                                      ! Sky Clearness
  0,                                      ! Rain Indicator
  0,                                      ! Snow Indicator
  21,                                     ! Day of Month
  7,                                      ! Month
  SummerDesignDay,                        ! Day Type
  0,                                      ! Daylight Saving Time Indicator
  Wetbulb,                                ! Humidity Indicating Type
  ,                                       ! Humidity Indicating Day Schedule Name
  DefaultMultipliers,                     ! Dry-Bulb Temperature Range Modifier Type
  ,                                       ! Dry-Bulb Temperature Range Modifier Schedule Name
  ASHRAETau,                              ! Solar Model Indicator
  ,                                       ! Beam Solar Day Schedule Name
  ,                                       ! Diffuse Solar Day Schedule Name
  0.404,                                  ! ASHRAE Taub {dimensionless}
  2.234;                                  ! ASHRAE Taud {dimensionless}

OS:ComponentData,
  {7eceeed1-fd14-404d-86e8-9b2eed10153a}, ! Handle
  Component Data 1,                       ! Name
  {91201c24-1228-4bf8-be67-0226ac79bbbc}, ! UUID
  {e19eecca-6863-4e01-8c8b-ee9b7768e226}, ! Version UUID
  1366308261,                             ! Creation Timestamp
  1366308261,                             ! Version Timestamp
  {c9495488-4700-4001-bffc-c25993fa3f51}; ! Name of Object 1

