
OS:Version,
  {d75bdb55-17f3-4855-bbe5-dbcf9f35f4e9}, ! Handle
  0.9.3;                                  ! Version Identifier

OS:SizingPeriod:DesignDay,
  {d89d5f49-bbd7-41a4-9a3c-5b300b82dff8}, ! Handle
  KANSAS_CITY Ann Clg .4% Condns WB=>MDB, ! Name
  32.4,                                   ! Maximum Dry-Bulb Temperature {C}
  10.5,                                   ! Daily Dry-Bulb Temperature Range {deltaC}
  26.4,                                   ! Humidity Indicating Conditions at Maximum Dry-Bulb {BasedOnField A3}
  97598,                                  ! Barometric Pressure {Pa}
  5.7,                                    ! Wind Speed {m/s}
  180,                                    ! Wind Direction {deg}
  0,                                      ! Sky Clearness
  0,                                      ! Rain Indicator
  0,                                      ! Snow Indicator
  21,                                     ! Day of Month
  7,                                      ! Month
  SummerDesignDay,                        ! Day Type
  0,                                      ! Daylight Saving Time Indicator
  Wetbulb,                                ! Humidity Indicating Type
  ,                                       ! Humidity Indicating Day Schedule Name
  DefaultMultipliers,                     ! Dry-Bulb Temperature Range Modifier Type
  ,                                       ! Dry-Bulb Temperature Range Modifier Schedule Name
  ASHRAETau,                              ! Solar Model Indicator
  ,                                       ! Beam Solar Day Schedule Name
  ,                                       ! Diffuse Solar Day Schedule Name
  0.438,                                  ! ASHRAE Taub {dimensionless}
  2.146;                                  ! ASHRAE Taud {dimensionless}

OS:ComponentData,
  {ba7c37c8-6c14-454a-abec-86c04761db8f}, ! Handle
  Component Data 1,                       ! Name
  {06a49836-045a-43a1-8b65-d3662907136d}, ! UUID
  {7e146ac2-424f-43a4-95e8-3e14203f55f6}, ! Version UUID
  1366308521,                             ! Creation Timestamp
  1366308521,                             ! Version Timestamp
  {d89d5f49-bbd7-41a4-9a3c-5b300b82dff8}; ! Name of Object 1

