
OS:Version,
  {a5f1c1c5-7dae-4a1a-8f93-59d91ef9bc66}, ! Handle
  0.9.3;                                  ! Version Identifier

OS:SizingPeriod:DesignDay,
  {68226f67-646d-4d1c-8a06-21576c023cdb}, ! Handle
  CHATTANOOGA Ann Hum_n 99% Condns DP=>MCDB, ! Name
  -1.5,                                   ! Maximum Dry-Bulb Temperature {C}
  0,                                      ! Daily Dry-Bulb Temperature Range {deltaC}
  -13.1,                                  ! Humidity Indicating Conditions at Maximum Dry-Bulb {BasedOnField A3}
  98828,                                  ! Barometric Pressure {Pa}
  2.9,                                    ! Wind Speed {m/s}
  0,                                      ! Wind Direction {deg}
  0,                                      ! Sky Clearness
  0,                                      ! Rain Indicator
  0,                                      ! Snow Indicator
  21,                                     ! Day of Month
  1,                                      ! Month
  WinterDesignDay,                        ! Day Type
  0,                                      ! Daylight Saving Time Indicator
  Dewpoint,                               ! Humidity Indicating Type
  ,                                       ! Humidity Indicating Day Schedule Name
  DefaultMultipliers,                     ! Dry-Bulb Temperature Range Modifier Type
  ,                                       ! Dry-Bulb Temperature Range Modifier Schedule Name
  ASHRAEClearSky;                         ! Solar Model Indicator

