
OS:Version,
  {c28de761-5f7d-4b2b-8c9e-671df0d07297}, ! Handle
  0.9.3;                                  ! Version Identifier

OS:SizingPeriod:DesignDay,
  {74721bff-2f19-468d-b981-396260973097}, ! Handle
  Keokuk Muni Ann Hum_n 99.6% Condns DP=>MCDB, ! Name
  -16,                                    ! Maximum Dry-Bulb Temperature {C}
  0,                                      ! Daily Dry-Bulb Temperature Range {deltaC}
  -22.3,                                  ! Humidity Indicating Conditions at Maximum Dry-Bulb {BasedOnField A3}
  98886,                                  ! Barometric Pressure {Pa}
  3.6,                                    ! Wind Speed {m/s}
  290,                                    ! Wind Direction {deg}
  0,                                      ! Sky Clearness
  0,                                      ! Rain Indicator
  0,                                      ! Snow Indicator
  21,                                     ! Day of Month
  1,                                      ! Month
  WinterDesignDay,                        ! Day Type
  0,                                      ! Daylight Saving Time Indicator
  Dewpoint,                               ! Humidity Indicating Type
  ,                                       ! Humidity Indicating Day Schedule Name
  DefaultMultipliers,                     ! Dry-Bulb Temperature Range Modifier Type
  ,                                       ! Dry-Bulb Temperature Range Modifier Schedule Name
  ASHRAEClearSky;                         ! Solar Model Indicator

OS:ComponentData,
  {e08a503d-f877-4fe1-b515-1db967e1fd3e}, ! Handle
  Component Data 1,                       ! Name
  {9244412e-2702-4a8a-acba-1cf3cc743cc7}, ! UUID
  {9d3d4b3b-adbe-489c-8dd8-d46f9ff4267c}, ! Version UUID
  1366307202,                             ! Creation Timestamp
  1366307202,                             ! Version Timestamp
  {74721bff-2f19-468d-b981-396260973097}; ! Name of Object 1

