
OS:Version,
  {745756d4-18da-4de6-b015-dcc65f29ec1b}, ! Handle
  0.9.3;                                  ! Version Identifier

OS:SizingPeriod:DesignDay,
  {4bda7270-c381-432e-b93e-22c8b354665c}, ! Handle
  Antigo Lang Awos Ann Hum_n 99% Condns DP=>MCDB, ! Name
  -21.9,                                  ! Maximum Dry-Bulb Temperature {C}
  0,                                      ! Daily Dry-Bulb Temperature Range {deltaC}
  -27,                                    ! Humidity Indicating Conditions at Maximum Dry-Bulb {BasedOnField A3}
  95874,                                  ! Barometric Pressure {Pa}
  1.9,                                    ! Wind Speed {m/s}
  290,                                    ! Wind Direction {deg}
  0,                                      ! Sky Clearness
  0,                                      ! Rain Indicator
  0,                                      ! Snow Indicator
  21,                                     ! Day of Month
  1,                                      ! Month
  WinterDesignDay,                        ! Day Type
  0,                                      ! Daylight Saving Time Indicator
  Dewpoint,                               ! Humidity Indicating Type
  ,                                       ! Humidity Indicating Day Schedule Name
  DefaultMultipliers,                     ! Dry-Bulb Temperature Range Modifier Type
  ,                                       ! Dry-Bulb Temperature Range Modifier Schedule Name
  ASHRAEClearSky;                         ! Solar Model Indicator

OS:ComponentData,
  {55e2a859-d765-4f55-9552-144ca91f0abd}, ! Handle
  Component Data 1,                       ! Name
  {c2d5e4a3-4bab-4d29-a331-a41f004c2874}, ! UUID
  {f10633e6-4d63-434c-9dbb-4d56d3e1b135}, ! Version UUID
  1366311479,                             ! Creation Timestamp
  1366311479,                             ! Version Timestamp
  {4bda7270-c381-432e-b93e-22c8b354665c}; ! Name of Object 1

