
OS:Version,
  {cd871a8a-5ed9-4a7e-a0a3-470db299f727}, ! Handle
  0.9.3;                                  ! Version Identifier

OS:SizingPeriod:DesignDay,
  {786d595c-3e1c-4167-83a9-63c526b12cd2}, ! Handle
  Draughon Miller Cen Ann Clg .4% Condns Enth=>MDB, ! Name
  32.9,                                   ! Maximum Dry-Bulb Temperature {C}
  12.4,                                   ! Daily Dry-Bulb Temperature Range {deltaC}
  79100,                                  ! Humidity Indicating Conditions at Maximum Dry-Bulb {BasedOnField A3}
  98792,                                  ! Barometric Pressure {Pa}
  4.6,                                    ! Wind Speed {m/s}
  180,                                    ! Wind Direction {deg}
  0,                                      ! Sky Clearness
  0,                                      ! Rain Indicator
  0,                                      ! Snow Indicator
  21,                                     ! Day of Month
  8,                                      ! Month
  SummerDesignDay,                        ! Day Type
  0,                                      ! Daylight Saving Time Indicator
  Enthalpy,                               ! Humidity Indicating Type
  ,                                       ! Humidity Indicating Day Schedule Name
  DefaultMultipliers,                     ! Dry-Bulb Temperature Range Modifier Type
  ,                                       ! Dry-Bulb Temperature Range Modifier Schedule Name
  ASHRAETau,                              ! Solar Model Indicator
  ,                                       ! Beam Solar Day Schedule Name
  ,                                       ! Diffuse Solar Day Schedule Name
  0.456,                                  ! ASHRAE Taub {dimensionless}
  2.108;                                  ! ASHRAE Taud {dimensionless}

OS:ComponentData,
  {ef5a77c7-36c1-4dbc-9b84-bee09fde2597}, ! Handle
  Component Data 1,                       ! Name
  {9af5cd73-fa8a-4cd0-ba8e-73f1e1b00763}, ! UUID
  {0f417ec9-170c-4a46-8d90-99caab24fe65}, ! Version UUID
  1366310681,                             ! Creation Timestamp
  1366310681,                             ! Version Timestamp
  {786d595c-3e1c-4167-83a9-63c526b12cd2}; ! Name of Object 1

