
OS:Version,
  {0efa611f-6b1d-4147-be81-d8c6790fad5e}, ! Handle
  0.9.3;                                  ! Version Identifier

OS:SizingPeriod:DesignDay,
  {15070fdb-0e61-429c-b486-e08ceb9c3dfd}, ! Handle
  Greeley Weld  Awos Ann Hum_n 99.6% Condns DP=>MCDB, ! Name
  -19.6,                                  ! Maximum Dry-Bulb Temperature {C}
  0,                                      ! Daily Dry-Bulb Temperature Range {deltaC}
  -23.5,                                  ! Humidity Indicating Conditions at Maximum Dry-Bulb {BasedOnField A3}
  85389,                                  ! Barometric Pressure {Pa}
  1.2,                                    ! Wind Speed {m/s}
  330,                                    ! Wind Direction {deg}
  0,                                      ! Sky Clearness
  0,                                      ! Rain Indicator
  0,                                      ! Snow Indicator
  21,                                     ! Day of Month
  1,                                      ! Month
  WinterDesignDay,                        ! Day Type
  0,                                      ! Daylight Saving Time Indicator
  Dewpoint,                               ! Humidity Indicating Type
  ,                                       ! Humidity Indicating Day Schedule Name
  DefaultMultipliers,                     ! Dry-Bulb Temperature Range Modifier Type
  ,                                       ! Dry-Bulb Temperature Range Modifier Schedule Name
  ASHRAEClearSky;                         ! Solar Model Indicator

OS:ComponentData,
  {3b58a7f8-e05c-4917-aaf0-107e346596c2}, ! Handle
  Component Data 1,                       ! Name
  {5b94de9c-10b7-42ab-93fb-94247a05952e}, ! UUID
  {6f1e0139-4cb2-463f-8930-b0a4a036c38b}, ! Version UUID
  1366306705,                             ! Creation Timestamp
  1366306705,                             ! Version Timestamp
  {15070fdb-0e61-429c-b486-e08ceb9c3dfd}; ! Name of Object 1

