
OS:Version,
  {b5834f2a-913c-4a67-86b1-524361fef24a}, ! Handle
  0.9.3;                                  ! Version Identifier

OS:SizingPeriod:DesignDay,
  {b13d0dd1-db6c-45ad-b8fb-1dbbbf8bd912}, ! Handle
  Austin Muni Ann Clg 2% Condns WB=>MDB,  ! Name
  27.2,                                   ! Maximum Dry-Bulb Temperature {C}
  10.2,                                   ! Daily Dry-Bulb Temperature Range {deltaC}
  23.4,                                   ! Humidity Indicating Conditions at Maximum Dry-Bulb {BasedOnField A3}
  96900,                                  ! Barometric Pressure {Pa}
  5.2,                                    ! Wind Speed {m/s}
  200,                                    ! Wind Direction {deg}
  0,                                      ! Sky Clearness
  0,                                      ! Rain Indicator
  0,                                      ! Snow Indicator
  21,                                     ! Day of Month
  7,                                      ! Month
  SummerDesignDay,                        ! Day Type
  0,                                      ! Daylight Saving Time Indicator
  Wetbulb,                                ! Humidity Indicating Type
  ,                                       ! Humidity Indicating Day Schedule Name
  DefaultMultipliers,                     ! Dry-Bulb Temperature Range Modifier Type
  ,                                       ! Dry-Bulb Temperature Range Modifier Schedule Name
  ASHRAETau,                              ! Solar Model Indicator
  ,                                       ! Beam Solar Day Schedule Name
  ,                                       ! Diffuse Solar Day Schedule Name
  0.407,                                  ! ASHRAE Taub {dimensionless}
  2.215;                                  ! ASHRAE Taud {dimensionless}

OS:ComponentData,
  {94ab1e29-327a-4292-9078-1335dea87d82}, ! Handle
  Component Data 1,                       ! Name
  {64064676-ffce-4f29-b6a2-3130ceb59521}, ! UUID
  {6125a762-418f-49a7-bf72-8da65ebe2466}, ! Version UUID
  1366308150,                             ! Creation Timestamp
  1366308150,                             ! Version Timestamp
  {b13d0dd1-db6c-45ad-b8fb-1dbbbf8bd912}; ! Name of Object 1

