
OS:Version,
  {9266e638-da72-4be2-8c5a-f12cc6e7524e}, ! Handle
  0.9.3;                                  ! Version Identifier

OS:SizingPeriod:DesignDay,
  {ea2aebec-f59b-49af-9907-9d86d2324fa6}, ! Handle
  Findlay Airport Ann Clg .4% Condns WB=>MDB, ! Name
  30.1,                                   ! Maximum Dry-Bulb Temperature {C}
  10.6,                                   ! Daily Dry-Bulb Temperature Range {deltaC}
  24.9,                                   ! Humidity Indicating Conditions at Maximum Dry-Bulb {BasedOnField A3}
  98428,                                  ! Barometric Pressure {Pa}
  4.7,                                    ! Wind Speed {m/s}
  230,                                    ! Wind Direction {deg}
  0,                                      ! Sky Clearness
  0,                                      ! Rain Indicator
  0,                                      ! Snow Indicator
  21,                                     ! Day of Month
  7,                                      ! Month
  SummerDesignDay,                        ! Day Type
  0,                                      ! Daylight Saving Time Indicator
  Wetbulb,                                ! Humidity Indicating Type
  ,                                       ! Humidity Indicating Day Schedule Name
  DefaultMultipliers,                     ! Dry-Bulb Temperature Range Modifier Type
  ,                                       ! Dry-Bulb Temperature Range Modifier Schedule Name
  ASHRAETau,                              ! Solar Model Indicator
  ,                                       ! Beam Solar Day Schedule Name
  ,                                       ! Diffuse Solar Day Schedule Name
  0.46,                                   ! ASHRAE Taub {dimensionless}
  2.024;                                  ! ASHRAE Taud {dimensionless}

OS:ComponentData,
  {bc330351-4eb4-4950-b000-9e2076b1cdad}, ! Handle
  Component Data 1,                       ! Name
  {6a788546-d653-43c9-a072-6306074f4e90}, ! UUID
  {b6d46126-d27e-45bd-9f79-6307f477ae40}, ! Version UUID
  1366309826,                             ! Creation Timestamp
  1366309826,                             ! Version Timestamp
  {ea2aebec-f59b-49af-9907-9d86d2324fa6}; ! Name of Object 1

