
OS:Version,
  {432ab151-9726-4c28-a1d7-138534a5a717}, ! Handle
  0.9.3;                                  ! Version Identifier

OS:SizingPeriod:DesignDay,
  {d91b9ffa-d14e-4942-a335-5ad2308ce15c}, ! Handle
  LANDER Ann Clg 1% Condns DP=>MDB,       ! Name
  19.8,                                   ! Maximum Dry-Bulb Temperature {C}
  15.6,                                   ! Daily Dry-Bulb Temperature Range {deltaC}
  11.8,                                   ! Humidity Indicating Conditions at Maximum Dry-Bulb {BasedOnField A3}
  82542,                                  ! Barometric Pressure {Pa}
  4.2,                                    ! Wind Speed {m/s}
  220,                                    ! Wind Direction {deg}
  0,                                      ! Sky Clearness
  0,                                      ! Rain Indicator
  0,                                      ! Snow Indicator
  21,                                     ! Day of Month
  7,                                      ! Month
  SummerDesignDay,                        ! Day Type
  0,                                      ! Daylight Saving Time Indicator
  Dewpoint,                               ! Humidity Indicating Type
  ,                                       ! Humidity Indicating Day Schedule Name
  DefaultMultipliers,                     ! Dry-Bulb Temperature Range Modifier Type
  ,                                       ! Dry-Bulb Temperature Range Modifier Schedule Name
  ASHRAETau,                              ! Solar Model Indicator
  ,                                       ! Beam Solar Day Schedule Name
  ,                                       ! Diffuse Solar Day Schedule Name
  0.405,                                  ! ASHRAE Taub {dimensionless}
  2.036;                                  ! ASHRAE Taud {dimensionless}

