
OS:Version,
  {a82fb77d-bd5f-4092-8dc7-1506cf1dae34}, ! Handle
  0.9.3;                                  ! Version Identifier

OS:SizingPeriod:DesignDay,
  {9d84a5e7-949f-4d9f-8d43-2a20d54658c0}, ! Handle
  BETTLES Ann Clg .4% Condns Enth=>MDB,   ! Name
  23.8,                                   ! Maximum Dry-Bulb Temperature {C}
  10.6,                                   ! Daily Dry-Bulb Temperature Range {deltaC}
  47700,                                  ! Humidity Indicating Conditions at Maximum Dry-Bulb {BasedOnField A3}
  98886,                                  ! Barometric Pressure {Pa}
  3.3,                                    ! Wind Speed {m/s}
  220,                                    ! Wind Direction {deg}
  0,                                      ! Sky Clearness
  0,                                      ! Rain Indicator
  0,                                      ! Snow Indicator
  21,                                     ! Day of Month
  7,                                      ! Month
  SummerDesignDay,                        ! Day Type
  0,                                      ! Daylight Saving Time Indicator
  Enthalpy,                               ! Humidity Indicating Type
  ,                                       ! Humidity Indicating Day Schedule Name
  DefaultMultipliers,                     ! Dry-Bulb Temperature Range Modifier Type
  ,                                       ! Dry-Bulb Temperature Range Modifier Schedule Name
  ASHRAETau,                              ! Solar Model Indicator
  ,                                       ! Beam Solar Day Schedule Name
  ,                                       ! Diffuse Solar Day Schedule Name
  0.389,                                  ! ASHRAE Taub {dimensionless}
  2.131;                                  ! ASHRAE Taud {dimensionless}

OS:ComponentData,
  {ab67a1e0-2305-4362-9492-16d938e084c1}, ! Handle
  Component Data 1,                       ! Name
  {c69d3a01-b9df-4939-afeb-69a47ea76d17}, ! UUID
  {c869735f-5546-4d53-8ba7-d4a4193f8575}, ! Version UUID
  1366304763,                             ! Creation Timestamp
  1366304763,                             ! Version Timestamp
  {9d84a5e7-949f-4d9f-8d43-2a20d54658c0}; ! Name of Object 1

