
OS:Version,
  {9c487e2d-e293-4725-b10d-e27ec2853693}, ! Handle
  0.9.3;                                  ! Version Identifier

OS:SizingPeriod:DesignDay,
  {a1f37b1c-b8b1-45a6-a04f-e39a1b6e7b57}, ! Handle
  Elko Municipal Arpt Ann Clg 2% Condns DP=>MDB, ! Name
  19.6,                                   ! Maximum Dry-Bulb Temperature {C}
  21.8,                                   ! Daily Dry-Bulb Temperature Range {deltaC}
  10.1,                                   ! Humidity Indicating Conditions at Maximum Dry-Bulb {BasedOnField A3}
  84059,                                  ! Barometric Pressure {Pa}
  4.1,                                    ! Wind Speed {m/s}
  240,                                    ! Wind Direction {deg}
  0,                                      ! Sky Clearness
  0,                                      ! Rain Indicator
  0,                                      ! Snow Indicator
  21,                                     ! Day of Month
  7,                                      ! Month
  SummerDesignDay,                        ! Day Type
  0,                                      ! Daylight Saving Time Indicator
  Dewpoint,                               ! Humidity Indicating Type
  ,                                       ! Humidity Indicating Day Schedule Name
  DefaultMultipliers,                     ! Dry-Bulb Temperature Range Modifier Type
  ,                                       ! Dry-Bulb Temperature Range Modifier Schedule Name
  ASHRAETau,                              ! Solar Model Indicator
  ,                                       ! Beam Solar Day Schedule Name
  ,                                       ! Diffuse Solar Day Schedule Name
  0.446,                                  ! ASHRAE Taub {dimensionless}
  1.888;                                  ! ASHRAE Taud {dimensionless}

OS:ComponentData,
  {0459af36-f50d-48a0-a681-9f64df86067e}, ! Handle
  Component Data 1,                       ! Name
  {436bec47-bddc-4e62-a669-36b8687ba38b}, ! UUID
  {e5c13374-213e-46b1-a13f-b51774effb4e}, ! Version UUID
  1366309468,                             ! Creation Timestamp
  1366309468,                             ! Version Timestamp
  {a1f37b1c-b8b1-45a6-a04f-e39a1b6e7b57}; ! Name of Object 1

