
OS:Version,
  {5cc1334d-9889-4a5a-82d5-0b3cb98432f1}, ! Handle
  0.9.3;                                  ! Version Identifier

OS:SizingPeriod:DesignDay,
  {24f5125f-5af8-4b8a-aadc-99dd2a483154}, ! Handle
  Grand Canyon Natl P Ann Clg 1% Condns Enth=>MDB, ! Name
  23.5,                                   ! Maximum Dry-Bulb Temperature {C}
  19.6,                                   ! Daily Dry-Bulb Temperature Range {deltaC}
  52500,                                  ! Humidity Indicating Conditions at Maximum Dry-Bulb {BasedOnField A3}
  78856,                                  ! Barometric Pressure {Pa}
  4.6,                                    ! Wind Speed {m/s}
  230,                                    ! Wind Direction {deg}
  0,                                      ! Sky Clearness
  0,                                      ! Rain Indicator
  0,                                      ! Snow Indicator
  21,                                     ! Day of Month
  7,                                      ! Month
  SummerDesignDay,                        ! Day Type
  0,                                      ! Daylight Saving Time Indicator
  Enthalpy,                               ! Humidity Indicating Type
  ,                                       ! Humidity Indicating Day Schedule Name
  DefaultMultipliers,                     ! Dry-Bulb Temperature Range Modifier Type
  ,                                       ! Dry-Bulb Temperature Range Modifier Schedule Name
  ASHRAETau,                              ! Solar Model Indicator
  ,                                       ! Beam Solar Day Schedule Name
  ,                                       ! Diffuse Solar Day Schedule Name
  0.378,                                  ! ASHRAE Taub {dimensionless}
  2.158;                                  ! ASHRAE Taud {dimensionless}

OS:ComponentData,
  {9beb405b-fa72-411c-a631-5c1c76877836}, ! Handle
  Component Data 1,                       ! Name
  {1d48d478-4d8d-4e0a-9651-39df3c073433}, ! UUID
  {61f1b8dc-435e-4736-a3a2-b4644901a735}, ! Version UUID
  1366306279,                             ! Creation Timestamp
  1366306279,                             ! Version Timestamp
  {24f5125f-5af8-4b8a-aadc-99dd2a483154}; ! Name of Object 1

