
OS:Version,
  {b3f0f042-5174-447a-b487-c5f40bc69b62}, ! Handle
  0.9.3;                                  ! Version Identifier

OS:SizingPeriod:DesignDay,
  {e8e74049-7d34-474f-a142-ffb9f3f33cad}, ! Handle
  Fort Smith Regional Ap Ann Htg 99.6% Condns DB, ! Name
  -9.6,                                   ! Maximum Dry-Bulb Temperature {C}
  0,                                      ! Daily Dry-Bulb Temperature Range {deltaC}
  -9.6,                                   ! Humidity Indicating Conditions at Maximum Dry-Bulb {BasedOnField A3}
  99690,                                  ! Barometric Pressure {Pa}
  3.8,                                    ! Wind Speed {m/s}
  350,                                    ! Wind Direction {deg}
  0,                                      ! Sky Clearness
  0,                                      ! Rain Indicator
  0,                                      ! Snow Indicator
  21,                                     ! Day of Month
  1,                                      ! Month
  WinterDesignDay,                        ! Day Type
  0,                                      ! Daylight Saving Time Indicator
  Wetbulb,                                ! Humidity Indicating Type
  ,                                       ! Humidity Indicating Day Schedule Name
  DefaultMultipliers,                     ! Dry-Bulb Temperature Range Modifier Type
  ,                                       ! Dry-Bulb Temperature Range Modifier Schedule Name
  ASHRAEClearSky;                         ! Solar Model Indicator

OS:ComponentData,
  {1a0d40d4-c3e6-46dd-92ba-e6e606571e61}, ! Handle
  Component Data 1,                       ! Name
  {9b255b65-f72e-4bf4-9888-b01f89903625}, ! UUID
  {8bb86ac2-d92b-448f-a1f3-b1d76f3a182f}, ! Version UUID
  1366306212,                             ! Creation Timestamp
  1366306212,                             ! Version Timestamp
  {e8e74049-7d34-474f-a142-ffb9f3f33cad}; ! Name of Object 1

