
OS:Version,
  {31e52d7e-7600-401f-9fcd-3d5e84952f34}, ! Handle
  0.9.3;                                  ! Version Identifier

OS:SizingPeriod:DesignDay,
  {783812ba-9373-41c1-9e72-97f9568ae2ab}, ! Handle
  Kelso Wb Ap Ann Htg 99% Condns DB,      ! Name
  -3.1,                                   ! Maximum Dry-Bulb Temperature {C}
  0,                                      ! Daily Dry-Bulb Temperature Range {deltaC}
  -3.1,                                   ! Humidity Indicating Conditions at Maximum Dry-Bulb {BasedOnField A3}
  101265,                                 ! Barometric Pressure {Pa}
  1.1,                                    ! Wind Speed {m/s}
  160,                                    ! Wind Direction {deg}
  0,                                      ! Sky Clearness
  0,                                      ! Rain Indicator
  0,                                      ! Snow Indicator
  21,                                     ! Day of Month
  12,                                     ! Month
  WinterDesignDay,                        ! Day Type
  0,                                      ! Daylight Saving Time Indicator
  Wetbulb,                                ! Humidity Indicating Type
  ,                                       ! Humidity Indicating Day Schedule Name
  DefaultMultipliers,                     ! Dry-Bulb Temperature Range Modifier Type
  ,                                       ! Dry-Bulb Temperature Range Modifier Schedule Name
  ASHRAEClearSky;                         ! Solar Model Indicator

OS:ComponentData,
  {612e88a9-7987-4b08-b60a-bac744cb9918}, ! Handle
  Component Data 1,                       ! Name
  {8992c314-4894-4153-aa94-49dd50bd8749}, ! UUID
  {ed151bf2-ed5c-41aa-891c-8482448328fd}, ! Version UUID
  1366311296,                             ! Creation Timestamp
  1366311296,                             ! Version Timestamp
  {783812ba-9373-41c1-9e72-97f9568ae2ab}; ! Name of Object 1

