
OS:Version,
  {9ce1e395-e744-4440-84f4-b1b919b4822c}, ! Handle
  0.9.3;                                  ! Version Identifier

OS:SizingPeriod:DesignDay,
  {c3072891-f691-4d36-ab77-da5ac9bd41d0}, ! Handle
  DODGE_CITY Ann Htg 99.6% Condns DB,     ! Name
  -16.7,                                  ! Maximum Dry-Bulb Temperature {C}
  0,                                      ! Daily Dry-Bulb Temperature Range {deltaC}
  -16.7,                                  ! Humidity Indicating Conditions at Maximum Dry-Bulb {BasedOnField A3}
  92221,                                  ! Barometric Pressure {Pa}
  5.6,                                    ! Wind Speed {m/s}
  0,                                      ! Wind Direction {deg}
  0,                                      ! Sky Clearness
  0,                                      ! Rain Indicator
  0,                                      ! Snow Indicator
  21,                                     ! Day of Month
  1,                                      ! Month
  WinterDesignDay,                        ! Day Type
  0,                                      ! Daylight Saving Time Indicator
  Wetbulb,                                ! Humidity Indicating Type
  ,                                       ! Humidity Indicating Day Schedule Name
  DefaultMultipliers,                     ! Dry-Bulb Temperature Range Modifier Type
  ,                                       ! Dry-Bulb Temperature Range Modifier Schedule Name
  ASHRAEClearSky;                         ! Solar Model Indicator

OS:ComponentData,
  {8519a246-263c-4f92-a252-915f6cfe5478}, ! Handle
  Component Data 1,                       ! Name
  {19a9bf0b-d9ea-4eb4-ba17-613620f64fb6}, ! UUID
  {5eecafca-4765-4df1-ba1a-0d143ac7741b}, ! Version UUID
  1366307504,                             ! Creation Timestamp
  1366307504,                             ! Version Timestamp
  {c3072891-f691-4d36-ab77-da5ac9bd41d0}; ! Name of Object 1

