
OS:Version,
  {2e5c437e-bf82-456a-a540-33df30d953ea}, ! Handle
  0.9.3;                                  ! Version Identifier

OS:SizingPeriod:DesignDay,
  {9690843c-2b1b-4a19-9483-dca6efb32dd8}, ! Handle
  Detroit Metropolitan Arpt Ann Clg 1% Condns Enth=>MDB, ! Name
  28.7,                                   ! Maximum Dry-Bulb Temperature {C}
  10.4,                                   ! Daily Dry-Bulb Temperature Range {deltaC}
  72400,                                  ! Humidity Indicating Conditions at Maximum Dry-Bulb {BasedOnField A3}
  99016,                                  ! Barometric Pressure {Pa}
  5.9,                                    ! Wind Speed {m/s}
  240,                                    ! Wind Direction {deg}
  0,                                      ! Sky Clearness
  0,                                      ! Rain Indicator
  0,                                      ! Snow Indicator
  21,                                     ! Day of Month
  7,                                      ! Month
  SummerDesignDay,                        ! Day Type
  0,                                      ! Daylight Saving Time Indicator
  Enthalpy,                               ! Humidity Indicating Type
  ,                                       ! Humidity Indicating Day Schedule Name
  DefaultMultipliers,                     ! Dry-Bulb Temperature Range Modifier Type
  ,                                       ! Dry-Bulb Temperature Range Modifier Schedule Name
  ASHRAETau,                              ! Solar Model Indicator
  ,                                       ! Beam Solar Day Schedule Name
  ,                                       ! Diffuse Solar Day Schedule Name
  0.47,                                   ! ASHRAE Taub {dimensionless}
  1.978;                                  ! ASHRAE Taud {dimensionless}

OS:ComponentData,
  {0c06110a-127b-4604-b70f-ab8a6bd53275}, ! Handle
  Component Data 1,                       ! Name
  {8e9b8717-66e3-46b4-b8bc-e2e34d2daa7c}, ! UUID
  {a3883108-0559-47e3-83c7-f4a06ee50ef1}, ! Version UUID
  1366307989,                             ! Creation Timestamp
  1366307989,                             ! Version Timestamp
  {9690843c-2b1b-4a19-9483-dca6efb32dd8}; ! Name of Object 1

