
OS:Version,
  {2f7e5db2-8bed-412a-b734-d93411b0effb}, ! Handle
  0.9.3;                                  ! Version Identifier

OS:SizingPeriod:DesignDay,
  {52ac27b7-1a0c-4750-b653-7664c56b7219}, ! Handle
  Kona Intl At Keahol Ann Htg 99.6% Condns DB, ! Name
  18.7,                                   ! Maximum Dry-Bulb Temperature {C}
  0,                                      ! Daily Dry-Bulb Temperature Range {deltaC}
  18.7,                                   ! Humidity Indicating Conditions at Maximum Dry-Bulb {BasedOnField A3}
  101145,                                 ! Barometric Pressure {Pa}
  2.9,                                    ! Wind Speed {m/s}
  80,                                     ! Wind Direction {deg}
  0,                                      ! Sky Clearness
  0,                                      ! Rain Indicator
  0,                                      ! Snow Indicator
  21,                                     ! Day of Month
  2,                                      ! Month
  WinterDesignDay,                        ! Day Type
  0,                                      ! Daylight Saving Time Indicator
  Wetbulb,                                ! Humidity Indicating Type
  ,                                       ! Humidity Indicating Day Schedule Name
  DefaultMultipliers,                     ! Dry-Bulb Temperature Range Modifier Type
  ,                                       ! Dry-Bulb Temperature Range Modifier Schedule Name
  ASHRAEClearSky;                         ! Solar Model Indicator

OS:ComponentData,
  {0ace3b23-4fb4-43f9-98be-1f9af2c5c883}, ! Handle
  Component Data 1,                       ! Name
  {ca978ce6-b2fe-4794-a09a-987b7860892f}, ! UUID
  {a68e8bbd-59d6-47be-980d-c097b96337ab}, ! Version UUID
  1366307107,                             ! Creation Timestamp
  1366307107,                             ! Version Timestamp
  {52ac27b7-1a0c-4750-b653-7664c56b7219}; ! Name of Object 1

