
OS:Version,
  {f87be669-e73f-4090-b561-f90e1b34cf73}, ! Handle
  0.9.3;                                  ! Version Identifier

OS:SizingPeriod:DesignDay,
  {a2835ca8-4919-4db6-b67e-87cb49532b22}, ! Handle
  Camp Mabry Ann Clg 1% Condns Enth=>MDB, ! Name
  31.2,                                   ! Maximum Dry-Bulb Temperature {C}
  11.7,                                   ! Daily Dry-Bulb Temperature Range {deltaC}
  79000,                                  ! Humidity Indicating Conditions at Maximum Dry-Bulb {BasedOnField A3}
  98969,                                  ! Barometric Pressure {Pa}
  3.7,                                    ! Wind Speed {m/s}
  160,                                    ! Wind Direction {deg}
  0,                                      ! Sky Clearness
  0,                                      ! Rain Indicator
  0,                                      ! Snow Indicator
  21,                                     ! Day of Month
  8,                                      ! Month
  SummerDesignDay,                        ! Day Type
  0,                                      ! Daylight Saving Time Indicator
  Enthalpy,                               ! Humidity Indicating Type
  ,                                       ! Humidity Indicating Day Schedule Name
  DefaultMultipliers,                     ! Dry-Bulb Temperature Range Modifier Type
  ,                                       ! Dry-Bulb Temperature Range Modifier Schedule Name
  ASHRAETau,                              ! Solar Model Indicator
  ,                                       ! Beam Solar Day Schedule Name
  ,                                       ! Diffuse Solar Day Schedule Name
  0.452,                                  ! ASHRAE Taub {dimensionless}
  2.127;                                  ! ASHRAE Taud {dimensionless}

OS:ComponentData,
  {0ad451ec-d666-400a-8655-7e9343d9552c}, ! Handle
  Component Data 1,                       ! Name
  {29e03cea-c6b1-4710-93ea-01c7388bbe33}, ! UUID
  {531e712a-c2b7-41e6-9930-1339d1956103}, ! Version UUID
  1366310579,                             ! Creation Timestamp
  1366310579,                             ! Version Timestamp
  {a2835ca8-4919-4db6-b67e-87cb49532b22}; ! Name of Object 1

