
OS:Version,
  {9ead8aea-61f7-43af-94bb-bbb1e0e56915}, ! Handle
  0.9.3;                                  ! Version Identifier

OS:SizingPeriod:DesignDay,
  {b438211b-a412-4746-a749-8cf0f8a9920f}, ! Handle
  COLUMBIA Ann Clg 2% Condns DP=>MDB,     ! Name
  27.7,                                   ! Maximum Dry-Bulb Temperature {C}
  11,                                     ! Daily Dry-Bulb Temperature Range {deltaC}
  23,                                     ! Humidity Indicating Conditions at Maximum Dry-Bulb {BasedOnField A3}
  98123,                                  ! Barometric Pressure {Pa}
  4.4,                                    ! Wind Speed {m/s}
  220,                                    ! Wind Direction {deg}
  0,                                      ! Sky Clearness
  0,                                      ! Rain Indicator
  0,                                      ! Snow Indicator
  21,                                     ! Day of Month
  7,                                      ! Month
  SummerDesignDay,                        ! Day Type
  0,                                      ! Daylight Saving Time Indicator
  Dewpoint,                               ! Humidity Indicating Type
  ,                                       ! Humidity Indicating Day Schedule Name
  DefaultMultipliers,                     ! Dry-Bulb Temperature Range Modifier Type
  ,                                       ! Dry-Bulb Temperature Range Modifier Schedule Name
  ASHRAETau,                              ! Solar Model Indicator
  ,                                       ! Beam Solar Day Schedule Name
  ,                                       ! Diffuse Solar Day Schedule Name
  0.448,                                  ! ASHRAE Taub {dimensionless}
  2.098;                                  ! ASHRAE Taud {dimensionless}

OS:ComponentData,
  {58c758cc-795e-4343-8a00-64a5b0b3ffad}, ! Handle
  Component Data 1,                       ! Name
  {6d35ce93-caef-4994-b117-24d250ac3394}, ! UUID
  {22deb373-0a28-495b-a880-75e76513b9ba}, ! Version UUID
  1366308482,                             ! Creation Timestamp
  1366308482,                             ! Version Timestamp
  {b438211b-a412-4746-a749-8cf0f8a9920f}; ! Name of Object 1

