
OS:Version,
  {3f114831-6ac9-4bae-95f9-03d74ff158ab}, ! Handle
  0.9.3;                                  ! Version Identifier

OS:SizingPeriod:DesignDay,
  {025f7cb8-24e7-47e8-9079-d9784ee6f7ff}, ! Handle
  Klamath Falls Intl Ap  Uo Ann Clg .4% Condns WB=>MDB, ! Name
  30.4,                                   ! Maximum Dry-Bulb Temperature {C}
  18.6,                                   ! Daily Dry-Bulb Temperature Range {deltaC}
  18.8,                                   ! Humidity Indicating Conditions at Maximum Dry-Bulb {BasedOnField A3}
  87502,                                  ! Barometric Pressure {Pa}
  3.5,                                    ! Wind Speed {m/s}
  320,                                    ! Wind Direction {deg}
  0,                                      ! Sky Clearness
  0,                                      ! Rain Indicator
  0,                                      ! Snow Indicator
  21,                                     ! Day of Month
  7,                                      ! Month
  SummerDesignDay,                        ! Day Type
  0,                                      ! Daylight Saving Time Indicator
  Wetbulb,                                ! Humidity Indicating Type
  ,                                       ! Humidity Indicating Day Schedule Name
  DefaultMultipliers,                     ! Dry-Bulb Temperature Range Modifier Type
  ,                                       ! Dry-Bulb Temperature Range Modifier Schedule Name
  ASHRAETau,                              ! Solar Model Indicator
  ,                                       ! Beam Solar Day Schedule Name
  ,                                       ! Diffuse Solar Day Schedule Name
  0.327,                                  ! ASHRAE Taub {dimensionless}
  2.593;                                  ! ASHRAE Taud {dimensionless}

OS:ComponentData,
  {8e5112cc-9955-4719-8e8e-94886aa18d3a}, ! Handle
  Component Data 1,                       ! Name
  {4fe2e869-4514-4ae2-af09-9621dd5fde90}, ! UUID
  {908759de-b64a-452a-b44a-caa1da592601}, ! Version UUID
  1366310016,                             ! Creation Timestamp
  1366310016,                             ! Version Timestamp
  {025f7cb8-24e7-47e8-9079-d9784ee6f7ff}; ! Name of Object 1

