
OS:Version,
  {56c6cd40-1552-4e2f-aeec-9f7ce294bb7f}, ! Handle
  0.9.3;                                  ! Version Identifier

OS:SizingPeriod:DesignDay,
  {4a064630-f3b4-407c-a8b3-70a4aeaec779}, ! Handle
  Lafayette Purdue Univ Ap Ann Htg Wind 99.6% Condns WS=>MCDB, ! Name
  -4.7,                                   ! Maximum Dry-Bulb Temperature {C}
  0,                                      ! Daily Dry-Bulb Temperature Range {deltaC}
  -4.7,                                   ! Humidity Indicating Conditions at Maximum Dry-Bulb {BasedOnField A3}
  99146,                                  ! Barometric Pressure {Pa}
  12.2,                                   ! Wind Speed {m/s}
  280,                                    ! Wind Direction {deg}
  0,                                      ! Sky Clearness
  0,                                      ! Rain Indicator
  0,                                      ! Snow Indicator
  21,                                     ! Day of Month
  1,                                      ! Month
  WinterDesignDay,                        ! Day Type
  0,                                      ! Daylight Saving Time Indicator
  Wetbulb,                                ! Humidity Indicating Type
  ,                                       ! Humidity Indicating Day Schedule Name
  DefaultMultipliers,                     ! Dry-Bulb Temperature Range Modifier Type
  ,                                       ! Dry-Bulb Temperature Range Modifier Schedule Name
  ASHRAEClearSky;                         ! Solar Model Indicator

OS:ComponentData,
  {a7af6db1-14a9-4b59-bcfe-295a8898c810}, ! Handle
  Component Data 1,                       ! Name
  {d509cae9-1284-4735-b90c-575afbc51b2b}, ! UUID
  {45fc806e-ce75-4777-a5fa-b8f3dd2720f8}, ! Version UUID
  1366307470,                             ! Creation Timestamp
  1366307470,                             ! Version Timestamp
  {4a064630-f3b4-407c-a8b3-70a4aeaec779}; ! Name of Object 1

