
OS:Version,
  {12171df4-558e-47f7-98f7-b9026d59d181}, ! Handle
  0.9.3;                                  ! Version Identifier

OS:SizingPeriod:DesignDay,
  {0dacd8f2-7e13-4f9e-9c4b-4773c7da2175}, ! Handle
  Ellsworth Afb Ann Clg 1% Condns Enth=>MDB, ! Name
  29.2,                                   ! Maximum Dry-Bulb Temperature {C}
  13.9,                                   ! Daily Dry-Bulb Temperature Range {deltaC}
  63800,                                  ! Humidity Indicating Conditions at Maximum Dry-Bulb {BasedOnField A3}
  90093,                                  ! Barometric Pressure {Pa}
  4.9,                                    ! Wind Speed {m/s}
  160,                                    ! Wind Direction {deg}
  0,                                      ! Sky Clearness
  0,                                      ! Rain Indicator
  0,                                      ! Snow Indicator
  21,                                     ! Day of Month
  7,                                      ! Month
  SummerDesignDay,                        ! Day Type
  0,                                      ! Daylight Saving Time Indicator
  Enthalpy,                               ! Humidity Indicating Type
  ,                                       ! Humidity Indicating Day Schedule Name
  DefaultMultipliers,                     ! Dry-Bulb Temperature Range Modifier Type
  ,                                       ! Dry-Bulb Temperature Range Modifier Schedule Name
  ASHRAETau,                              ! Solar Model Indicator
  ,                                       ! Beam Solar Day Schedule Name
  ,                                       ! Diffuse Solar Day Schedule Name
  0.407,                                  ! ASHRAE Taub {dimensionless}
  2.147;                                  ! ASHRAE Taud {dimensionless}

