
OS:Version,
  {4dbc9f8c-04c3-44a3-a436-71ee56ab4457}, ! Handle
  0.9.3;                                  ! Version Identifier

OS:SizingPeriod:DesignDay,
  {629b1935-c36b-4712-9d5d-7d422f8a59d4}, ! Handle
  Cordova Ann Htg 99.6% Condns DB,        ! Name
  -19.6,                                  ! Maximum Dry-Bulb Temperature {C}
  0,                                      ! Daily Dry-Bulb Temperature Range {deltaC}
  -19.6,                                  ! Humidity Indicating Conditions at Maximum Dry-Bulb {BasedOnField A3}
  101181,                                 ! Barometric Pressure {Pa}
  0.3,                                    ! Wind Speed {m/s}
  10,                                     ! Wind Direction {deg}
  0,                                      ! Sky Clearness
  0,                                      ! Rain Indicator
  0,                                      ! Snow Indicator
  21,                                     ! Day of Month
  1,                                      ! Month
  WinterDesignDay,                        ! Day Type
  0,                                      ! Daylight Saving Time Indicator
  Wetbulb,                                ! Humidity Indicating Type
  ,                                       ! Humidity Indicating Day Schedule Name
  DefaultMultipliers,                     ! Dry-Bulb Temperature Range Modifier Type
  ,                                       ! Dry-Bulb Temperature Range Modifier Schedule Name
  ASHRAEClearSky;                         ! Solar Model Indicator

OS:ComponentData,
  {2b760cda-f26b-494e-bb81-27474634c1d4}, ! Handle
  Component Data 1,                       ! Name
  {6b2edc77-2aed-46ba-a97d-f4c15ad51092}, ! UUID
  {309a4a84-15c8-491e-9dee-1a8a64e5f0e3}, ! Version UUID
  1366304814,                             ! Creation Timestamp
  1366304814,                             ! Version Timestamp
  {629b1935-c36b-4712-9d5d-7d422f8a59d4}; ! Name of Object 1

