
OS:Version,
  {f0f84e2e-5705-4443-96a5-4d175c7e82f6}, ! Handle
  0.9.3;                                  ! Version Identifier

OS:SizingPeriod:DesignDay,
  {fb8828a9-ccec-46c0-8248-7af6b7318ae1}, ! Handle
  Fairbanks Intl Arpt Ann Clg 1% Condns DP=>MDB, ! Name
  17.8,                                   ! Maximum Dry-Bulb Temperature {C}
  10.2,                                   ! Daily Dry-Bulb Temperature Range {deltaC}
  13.7,                                   ! Humidity Indicating Conditions at Maximum Dry-Bulb {BasedOnField A3}
  99737,                                  ! Barometric Pressure {Pa}
  3.1,                                    ! Wind Speed {m/s}
  180,                                    ! Wind Direction {deg}
  0,                                      ! Sky Clearness
  0,                                      ! Rain Indicator
  0,                                      ! Snow Indicator
  21,                                     ! Day of Month
  7,                                      ! Month
  SummerDesignDay,                        ! Day Type
  0,                                      ! Daylight Saving Time Indicator
  Dewpoint,                               ! Humidity Indicating Type
  ,                                       ! Humidity Indicating Day Schedule Name
  DefaultMultipliers,                     ! Dry-Bulb Temperature Range Modifier Type
  ,                                       ! Dry-Bulb Temperature Range Modifier Schedule Name
  ASHRAETau,                              ! Solar Model Indicator
  ,                                       ! Beam Solar Day Schedule Name
  ,                                       ! Diffuse Solar Day Schedule Name
  0.387,                                  ! ASHRAE Taub {dimensionless}
  2.212;                                  ! ASHRAE Taud {dimensionless}

OS:ComponentData,
  {3e6834dd-a15f-4484-bf8e-e67cc8ea4449}, ! Handle
  Component Data 1,                       ! Name
  {8baa7ae4-6d9a-488d-bfe9-85e6b231fd80}, ! UUID
  {6aac3129-b217-49a1-bff5-706a082a6722}, ! Version UUID
  1366305263,                             ! Creation Timestamp
  1366305263,                             ! Version Timestamp
  {fb8828a9-ccec-46c0-8248-7af6b7318ae1}; ! Name of Object 1

