
OS:Version,
  {b378f189-72fd-4f98-a390-07b569193915}, ! Handle
  0.9.3;                                  ! Version Identifier

OS:SizingPeriod:DesignDay,
  {45b589a0-fc43-4562-b1fa-50b17dba6b15}, ! Handle
  Bowling Green Warren Co Ap Ann Htg Wind 99.6% Condns WS=>MCDB, ! Name
  8.6,                                    ! Maximum Dry-Bulb Temperature {C}
  0,                                      ! Daily Dry-Bulb Temperature Range {deltaC}
  8.6,                                    ! Humidity Indicating Conditions at Maximum Dry-Bulb {BasedOnField A3}
  99406,                                  ! Barometric Pressure {Pa}
  10.8,                                   ! Wind Speed {m/s}
  340,                                    ! Wind Direction {deg}
  0,                                      ! Sky Clearness
  0,                                      ! Rain Indicator
  0,                                      ! Snow Indicator
  21,                                     ! Day of Month
  1,                                      ! Month
  WinterDesignDay,                        ! Day Type
  0,                                      ! Daylight Saving Time Indicator
  Wetbulb,                                ! Humidity Indicating Type
  ,                                       ! Humidity Indicating Day Schedule Name
  DefaultMultipliers,                     ! Dry-Bulb Temperature Range Modifier Type
  ,                                       ! Dry-Bulb Temperature Range Modifier Schedule Name
  ASHRAEClearSky;                         ! Solar Model Indicator

OS:ComponentData,
  {00892cab-61c5-411a-9ff0-cccb46b8d8d4}, ! Handle
  Component Data 1,                       ! Name
  {d625c9ca-e04b-4469-91b7-1e67db985a3e}, ! UUID
  {02a6ea29-39e7-42a5-ab61-16116d467a2a}, ! Version UUID
  1366307610,                             ! Creation Timestamp
  1366307610,                             ! Version Timestamp
  {45b589a0-fc43-4562-b1fa-50b17dba6b15}; ! Name of Object 1

