
OS:Version,
  {71d424cb-10f4-4a5e-9427-6c13a702456a}, ! Handle
  0.9.3;                                  ! Version Identifier

OS:SizingPeriod:DesignDay,
  {271c3f32-a074-4a4e-818d-19cc1f7c9593}, ! Handle
  ALBANY Ann Clg 1% Condns WB=>MDB,       ! Name
  27.9,                                   ! Maximum Dry-Bulb Temperature {C}
  11.1,                                   ! Daily Dry-Bulb Temperature Range {deltaC}
  23.4,                                   ! Humidity Indicating Conditions at Maximum Dry-Bulb {BasedOnField A3}
  100260,                                 ! Barometric Pressure {Pa}
  4.4,                                    ! Wind Speed {m/s}
  180,                                    ! Wind Direction {deg}
  0,                                      ! Sky Clearness
  0,                                      ! Rain Indicator
  0,                                      ! Snow Indicator
  21,                                     ! Day of Month
  7,                                      ! Month
  SummerDesignDay,                        ! Day Type
  0,                                      ! Daylight Saving Time Indicator
  Wetbulb,                                ! Humidity Indicating Type
  ,                                       ! Humidity Indicating Day Schedule Name
  DefaultMultipliers,                     ! Dry-Bulb Temperature Range Modifier Type
  ,                                       ! Dry-Bulb Temperature Range Modifier Schedule Name
  ASHRAETau,                              ! Solar Model Indicator
  ,                                       ! Beam Solar Day Schedule Name
  ,                                       ! Diffuse Solar Day Schedule Name
  0.49,                                   ! ASHRAE Taub {dimensionless}
  1.923;                                  ! ASHRAE Taud {dimensionless}

OS:ComponentData,
  {d430d71b-d4fb-4f60-9d1f-a8413323aa40}, ! Handle
  Component Data 1,                       ! Name
  {719e115f-a9bb-4343-a4fc-e7203a3bcc97}, ! UUID
  {fa493794-6d34-4107-8428-3da6b1915ddd}, ! Version UUID
  1366309575,                             ! Creation Timestamp
  1366309575,                             ! Version Timestamp
  {271c3f32-a074-4a4e-818d-19cc1f7c9593}; ! Name of Object 1

