
OS:Version,
  {87e4221f-202f-495d-81d2-7af482eb36c6}, ! Handle
  0.9.3;                                  ! Version Identifier

OS:SizingPeriod:DesignDay,
  {a28e85c7-c804-42a9-86d5-3ad2ff3270a8}, ! Handle
  Farmville Ann Clg 1% Condns DP=>MDB,    ! Name
  27.9,                                   ! Maximum Dry-Bulb Temperature {C}
  11.5,                                   ! Daily Dry-Bulb Temperature Range {deltaC}
  24.1,                                   ! Humidity Indicating Conditions at Maximum Dry-Bulb {BasedOnField A3}
  99832,                                  ! Barometric Pressure {Pa}
  2.7,                                    ! Wind Speed {m/s}
  250,                                    ! Wind Direction {deg}
  0,                                      ! Sky Clearness
  0,                                      ! Rain Indicator
  0,                                      ! Snow Indicator
  21,                                     ! Day of Month
  7,                                      ! Month
  SummerDesignDay,                        ! Day Type
  0,                                      ! Daylight Saving Time Indicator
  Dewpoint,                               ! Humidity Indicating Type
  ,                                       ! Humidity Indicating Day Schedule Name
  DefaultMultipliers,                     ! Dry-Bulb Temperature Range Modifier Type
  ,                                       ! Dry-Bulb Temperature Range Modifier Schedule Name
  ASHRAETau,                              ! Solar Model Indicator
  ,                                       ! Beam Solar Day Schedule Name
  ,                                       ! Diffuse Solar Day Schedule Name
  0.545,                                  ! ASHRAE Taub {dimensionless}
  1.79;                                   ! ASHRAE Taud {dimensionless}

OS:ComponentData,
  {be731b1d-1f91-45a7-ac11-a342760c4e26}, ! Handle
  Component Data 1,                       ! Name
  {3b5fbcb7-2be5-43fb-896c-c7e3f410de55}, ! UUID
  {a0ac4a6b-0bdb-4d34-ba1e-ed4f80360e93}, ! Version UUID
  1366311046,                             ! Creation Timestamp
  1366311046,                             ! Version Timestamp
  {a28e85c7-c804-42a9-86d5-3ad2ff3270a8}; ! Name of Object 1

