
OS:Version,
  {2103a220-501a-4f13-a692-392af46956cf}, ! Handle
  0.9.3;                                  ! Version Identifier

OS:SizingPeriod:DesignDay,
  {905b47a8-1e26-47de-99fb-137c37a6c94b}, ! Handle
  Grand Forks International Ap Ann Clg .4% Condns WB=>MDB, ! Name
  29.3,                                   ! Maximum Dry-Bulb Temperature {C}
  12.3,                                   ! Daily Dry-Bulb Temperature Range {deltaC}
  23.9,                                   ! Humidity Indicating Conditions at Maximum Dry-Bulb {BasedOnField A3}
  98287,                                  ! Barometric Pressure {Pa}
  6.1,                                    ! Wind Speed {m/s}
  170,                                    ! Wind Direction {deg}
  0,                                      ! Sky Clearness
  0,                                      ! Rain Indicator
  0,                                      ! Snow Indicator
  21,                                     ! Day of Month
  7,                                      ! Month
  SummerDesignDay,                        ! Day Type
  0,                                      ! Daylight Saving Time Indicator
  Wetbulb,                                ! Humidity Indicating Type
  ,                                       ! Humidity Indicating Day Schedule Name
  DefaultMultipliers,                     ! Dry-Bulb Temperature Range Modifier Type
  ,                                       ! Dry-Bulb Temperature Range Modifier Schedule Name
  ASHRAETau,                              ! Solar Model Indicator
  ,                                       ! Beam Solar Day Schedule Name
  ,                                       ! Diffuse Solar Day Schedule Name
  0.396,                                  ! ASHRAE Taub {dimensionless}
  2.253;                                  ! ASHRAE Taud {dimensionless}

OS:ComponentData,
  {6ec0973d-05d1-479e-97c2-8e56e98e58db}, ! Handle
  Component Data 1,                       ! Name
  {9dccfc2b-54fc-47f8-959b-f79e48a42f6b}, ! UUID
  {194df337-69c0-4946-bbd7-44da72ccb408}, ! Version UUID
  1366309047,                             ! Creation Timestamp
  1366309047,                             ! Version Timestamp
  {905b47a8-1e26-47de-99fb-137c37a6c94b}; ! Name of Object 1

