
OS:Version,
  {6f8a2475-d6ec-4a71-92e0-327d073f2a21}, ! Handle
  0.9.3;                                  ! Version Identifier

OS:SizingPeriod:DesignDay,
  {8f304577-7c3e-43e7-8923-88a687e7180e}, ! Handle
  Barksdale Afb Ann Clg 1% Condns DP=>MDB, ! Name
  28.3,                                   ! Maximum Dry-Bulb Temperature {C}
  10.5,                                   ! Daily Dry-Bulb Temperature Range {deltaC}
  24.5,                                   ! Humidity Indicating Conditions at Maximum Dry-Bulb {BasedOnField A3}
  100678,                                 ! Barometric Pressure {Pa}
  2.6,                                    ! Wind Speed {m/s}
  180,                                    ! Wind Direction {deg}
  0,                                      ! Sky Clearness
  0,                                      ! Rain Indicator
  0,                                      ! Snow Indicator
  21,                                     ! Day of Month
  7,                                      ! Month
  SummerDesignDay,                        ! Day Type
  0,                                      ! Daylight Saving Time Indicator
  Dewpoint,                               ! Humidity Indicating Type
  ,                                       ! Humidity Indicating Day Schedule Name
  DefaultMultipliers,                     ! Dry-Bulb Temperature Range Modifier Type
  ,                                       ! Dry-Bulb Temperature Range Modifier Schedule Name
  ASHRAETau,                              ! Solar Model Indicator
  ,                                       ! Beam Solar Day Schedule Name
  ,                                       ! Diffuse Solar Day Schedule Name
  0.492,                                  ! ASHRAE Taub {dimensionless}
  2.007;                                  ! ASHRAE Taud {dimensionless}

OS:ComponentData,
  {29cce388-69eb-4e2e-9638-5980f394a76d}, ! Handle
  Component Data 1,                       ! Name
  {3f782d8c-2a77-4f56-9209-d0b6b85589cc}, ! UUID
  {6004525d-480b-47bf-a0a4-89e9e76c3fd7}, ! Version UUID
  1366307700,                             ! Creation Timestamp
  1366307700,                             ! Version Timestamp
  {8f304577-7c3e-43e7-8923-88a687e7180e}; ! Name of Object 1

