
OS:Version,
  {9b6f45c5-bb38-416f-b9c4-4227effb74f6}, ! Handle
  0.9.3;                                  ! Version Identifier

OS:SizingPeriod:DesignDay,
  {40183b98-c096-493e-bf21-2b80a19a39dd}, ! Handle
  Hartford/Brainard Fiel Ann Clg 2% Condns WB=>MDB, ! Name
  27.4,                                   ! Maximum Dry-Bulb Temperature {C}
  11.4,                                   ! Daily Dry-Bulb Temperature Range {deltaC}
  22.9,                                   ! Humidity Indicating Conditions at Maximum Dry-Bulb {BasedOnField A3}
  101253,                                 ! Barometric Pressure {Pa}
  4.5,                                    ! Wind Speed {m/s}
  220,                                    ! Wind Direction {deg}
  0,                                      ! Sky Clearness
  0,                                      ! Rain Indicator
  0,                                      ! Snow Indicator
  21,                                     ! Day of Month
  7,                                      ! Month
  SummerDesignDay,                        ! Day Type
  0,                                      ! Daylight Saving Time Indicator
  Wetbulb,                                ! Humidity Indicating Type
  ,                                       ! Humidity Indicating Day Schedule Name
  DefaultMultipliers,                     ! Dry-Bulb Temperature Range Modifier Type
  ,                                       ! Dry-Bulb Temperature Range Modifier Schedule Name
  ASHRAETau,                              ! Solar Model Indicator
  ,                                       ! Beam Solar Day Schedule Name
  ,                                       ! Diffuse Solar Day Schedule Name
  0.486,                                  ! ASHRAE Taub {dimensionless}
  1.943;                                  ! ASHRAE Taud {dimensionless}

OS:ComponentData,
  {ea53a162-bdb9-46b6-9bd2-b8c740c86d47}, ! Handle
  Component Data 1,                       ! Name
  {c38d4e5e-003d-4c6f-b514-04a7d465dafa}, ! UUID
  {82aa99e5-7f4c-475a-967d-fedad8702734}, ! Version UUID
  1366306753,                             ! Creation Timestamp
  1366306753,                             ! Version Timestamp
  {40183b98-c096-493e-bf21-2b80a19a39dd}; ! Name of Object 1

