
OS:Version,
  {a2243c48-2948-49bd-83f2-58797644157d}, ! Handle
  0.9.3;                                  ! Version Identifier

OS:SizingPeriod:DesignDay,
  {3e4849d9-157c-4789-a314-14ee847b9052}, ! Handle
  Dothan Municipal Ap Ann Clg 1% Condns Enth=>MDB, ! Name
  31.2,                                   ! Maximum Dry-Bulb Temperature {C}
  9.7,                                    ! Daily Dry-Bulb Temperature Range {deltaC}
  80900,                                  ! Humidity Indicating Conditions at Maximum Dry-Bulb {BasedOnField A3}
  100153,                                 ! Barometric Pressure {Pa}
  3.7,                                    ! Wind Speed {m/s}
  300,                                    ! Wind Direction {deg}
  0,                                      ! Sky Clearness
  0,                                      ! Rain Indicator
  0,                                      ! Snow Indicator
  21,                                     ! Day of Month
  7,                                      ! Month
  SummerDesignDay,                        ! Day Type
  0,                                      ! Daylight Saving Time Indicator
  Enthalpy,                               ! Humidity Indicating Type
  ,                                       ! Humidity Indicating Day Schedule Name
  DefaultMultipliers,                     ! Dry-Bulb Temperature Range Modifier Type
  ,                                       ! Dry-Bulb Temperature Range Modifier Schedule Name
  ASHRAETau,                              ! Solar Model Indicator
  ,                                       ! Beam Solar Day Schedule Name
  ,                                       ! Diffuse Solar Day Schedule Name
  0.544,                                  ! ASHRAE Taub {dimensionless}
  1.83;                                   ! ASHRAE Taud {dimensionless}

OS:ComponentData,
  {f3d6544b-543d-4e87-94be-ce65569b409a}, ! Handle
  Component Data 1,                       ! Name
  {f71f494f-5824-4851-b686-8e8dcd7066a5}, ! UUID
  {6f8afafd-baff-41a9-affd-7bb34091b124}, ! Version UUID
  1366305652,                             ! Creation Timestamp
  1366305652,                             ! Version Timestamp
  {3e4849d9-157c-4789-a314-14ee847b9052}; ! Name of Object 1

