
OS:Version,
  {2be15cc3-9337-4dc3-93c0-b25163fda63f}, ! Handle
  0.9.3;                                  ! Version Identifier

OS:SizingPeriod:DesignDay,
  {0ff625ee-4959-461f-b148-eaf1709b2c3a}, ! Handle
  Eau Claire County Ap Ann Clg 1% Condns DB=>MWB, ! Name
  30.7,                                   ! Maximum Dry-Bulb Temperature {C}
  11.5,                                   ! Daily Dry-Bulb Temperature Range {deltaC}
  21.9,                                   ! Humidity Indicating Conditions at Maximum Dry-Bulb {BasedOnField A3}
  98112,                                  ! Barometric Pressure {Pa}
  5.2,                                    ! Wind Speed {m/s}
  190,                                    ! Wind Direction {deg}
  0,                                      ! Sky Clearness
  0,                                      ! Rain Indicator
  0,                                      ! Snow Indicator
  21,                                     ! Day of Month
  7,                                      ! Month
  SummerDesignDay,                        ! Day Type
  0,                                      ! Daylight Saving Time Indicator
  Wetbulb,                                ! Humidity Indicating Type
  ,                                       ! Humidity Indicating Day Schedule Name
  DefaultMultipliers,                     ! Dry-Bulb Temperature Range Modifier Type
  ,                                       ! Dry-Bulb Temperature Range Modifier Schedule Name
  ASHRAETau,                              ! Solar Model Indicator
  ,                                       ! Beam Solar Day Schedule Name
  ,                                       ! Diffuse Solar Day Schedule Name
  0.412,                                  ! ASHRAE Taub {dimensionless}
  2.189;                                  ! ASHRAE Taud {dimensionless}

OS:ComponentData,
  {ca6cd1e7-3bf8-466f-b131-13517b5d93bc}, ! Handle
  Component Data 1,                       ! Name
  {0b45f3d5-8f18-44a8-8e5e-a9390d03dd19}, ! UUID
  {bfb03e81-e742-49c5-958d-aad1fa0c768b}, ! Version UUID
  1366311474,                             ! Creation Timestamp
  1366311474,                             ! Version Timestamp
  {0ff625ee-4959-461f-b148-eaf1709b2c3a}; ! Name of Object 1

