
OS:Version,
  {be817a5c-928d-4d01-b9f7-30ccc92e25ba}, ! Handle
  0.9.3;                                  ! Version Identifier

OS:SizingPeriod:DesignDay,
  {8c825fd8-50cd-41ed-a1c0-502ec55c31cf}, ! Handle
  Fargo Hector International Ap Ann Clg .4% Condns Enth=>MDB, ! Name
  29.8,                                   ! Maximum Dry-Bulb Temperature {C}
  11.8,                                   ! Daily Dry-Bulb Temperature Range {deltaC}
  74400,                                  ! Humidity Indicating Conditions at Maximum Dry-Bulb {BasedOnField A3}
  98076,                                  ! Barometric Pressure {Pa}
  6.5,                                    ! Wind Speed {m/s}
  170,                                    ! Wind Direction {deg}
  0,                                      ! Sky Clearness
  0,                                      ! Rain Indicator
  0,                                      ! Snow Indicator
  21,                                     ! Day of Month
  7,                                      ! Month
  SummerDesignDay,                        ! Day Type
  0,                                      ! Daylight Saving Time Indicator
  Enthalpy,                               ! Humidity Indicating Type
  ,                                       ! Humidity Indicating Day Schedule Name
  DefaultMultipliers,                     ! Dry-Bulb Temperature Range Modifier Type
  ,                                       ! Dry-Bulb Temperature Range Modifier Schedule Name
  ASHRAETau,                              ! Solar Model Indicator
  ,                                       ! Beam Solar Day Schedule Name
  ,                                       ! Diffuse Solar Day Schedule Name
  0.396,                                  ! ASHRAE Taub {dimensionless}
  2.253;                                  ! ASHRAE Taud {dimensionless}

OS:ComponentData,
  {563ddcc4-43e4-479a-829c-77e43d9d5065}, ! Handle
  Component Data 1,                       ! Name
  {cd7fa1fa-9091-4cdc-b0c7-0715b6101778}, ! UUID
  {562fae67-55d7-4f68-aa40-a07fe741e780}, ! Version UUID
  1366309034,                             ! Creation Timestamp
  1366309034,                             ! Version Timestamp
  {8c825fd8-50cd-41ed-a1c0-502ec55c31cf}; ! Name of Object 1

