
OS:Version,
  {f0c6b297-c141-4bbc-b85c-721a3a1bd194}, ! Handle
  0.9.3;                                  ! Version Identifier

OS:SizingPeriod:DesignDay,
  {7a078674-786e-4616-9365-025333c83613}, ! Handle
  Bluefield Mercer Co  Nrel Ann Clg 1% Condns DB=>MWB, ! Name
  27.9,                                   ! Maximum Dry-Bulb Temperature {C}
  8.6,                                    ! Daily Dry-Bulb Temperature Range {deltaC}
  20.1,                                   ! Humidity Indicating Conditions at Maximum Dry-Bulb {BasedOnField A3}
  92043,                                  ! Barometric Pressure {Pa}
  2.4,                                    ! Wind Speed {m/s}
  270,                                    ! Wind Direction {deg}
  0,                                      ! Sky Clearness
  0,                                      ! Rain Indicator
  0,                                      ! Snow Indicator
  21,                                     ! Day of Month
  7,                                      ! Month
  SummerDesignDay,                        ! Day Type
  0,                                      ! Daylight Saving Time Indicator
  Wetbulb,                                ! Humidity Indicating Type
  ,                                       ! Humidity Indicating Day Schedule Name
  DefaultMultipliers,                     ! Dry-Bulb Temperature Range Modifier Type
  ,                                       ! Dry-Bulb Temperature Range Modifier Schedule Name
  ASHRAETau,                              ! Solar Model Indicator
  ,                                       ! Beam Solar Day Schedule Name
  ,                                       ! Diffuse Solar Day Schedule Name
  0.476,                                  ! ASHRAE Taub {dimensionless}
  1.931;                                  ! ASHRAE Taud {dimensionless}

OS:ComponentData,
  {69514a17-0c40-4501-8d96-f8d5d64eb234}, ! Handle
  Component Data 1,                       ! Name
  {4cfc80f3-44f2-419e-9133-f244424d4bf3}, ! UUID
  {d1b6dcac-836a-4c9f-864b-99ed0c7160f1}, ! Version UUID
  1366311614,                             ! Creation Timestamp
  1366311614,                             ! Version Timestamp
  {7a078674-786e-4616-9365-025333c83613}; ! Name of Object 1

