
OS:Version,
  {4951c94c-6775-42c6-b1d0-bbc3e5e0c169}, ! Handle
  0.9.3;                                  ! Version Identifier

OS:SizingPeriod:DesignDay,
  {cb3b2210-a49b-4fb9-b273-a7555f5e0de5}, ! Handle
  Ely Yelland Field Ann Htg 99.6% Condns DB, ! Name
  -20.1,                                  ! Maximum Dry-Bulb Temperature {C}
  0,                                      ! Daily Dry-Bulb Temperature Range {deltaC}
  -20.1,                                  ! Humidity Indicating Conditions at Maximum Dry-Bulb {BasedOnField A3}
  80397,                                  ! Barometric Pressure {Pa}
  5,                                      ! Wind Speed {m/s}
  180,                                    ! Wind Direction {deg}
  0,                                      ! Sky Clearness
  0,                                      ! Rain Indicator
  0,                                      ! Snow Indicator
  21,                                     ! Day of Month
  12,                                     ! Month
  WinterDesignDay,                        ! Day Type
  0,                                      ! Daylight Saving Time Indicator
  Wetbulb,                                ! Humidity Indicating Type
  ,                                       ! Humidity Indicating Day Schedule Name
  DefaultMultipliers,                     ! Dry-Bulb Temperature Range Modifier Type
  ,                                       ! Dry-Bulb Temperature Range Modifier Schedule Name
  ASHRAEClearSky;                         ! Solar Model Indicator

OS:ComponentData,
  {55e3d085-2e72-42ed-801e-98e7bcf4f1cd}, ! Handle
  Component Data 1,                       ! Name
  {9488433b-cbe2-4799-90db-a2c608a751c9}, ! UUID
  {84fc8894-46e2-49fb-9023-7477ccc096b2}, ! Version UUID
  1366309475,                             ! Creation Timestamp
  1366309475,                             ! Version Timestamp
  {cb3b2210-a49b-4fb9-b273-a7555f5e0de5}; ! Name of Object 1

