
OS:Version,
  {75229114-ae21-481a-8a8b-b36954004c98}, ! Handle
  0.9.3;                                  ! Version Identifier

OS:SizingPeriod:DesignDay,
  {83c78b65-c255-4f17-bccd-c2d6ab8e9ba1}, ! Handle
  Fargo Hector International Ap Ann Clg 1% Condns DP=>MDB, ! Name
  26.7,                                   ! Maximum Dry-Bulb Temperature {C}
  11.8,                                   ! Daily Dry-Bulb Temperature Range {deltaC}
  21.1,                                   ! Humidity Indicating Conditions at Maximum Dry-Bulb {BasedOnField A3}
  98076,                                  ! Barometric Pressure {Pa}
  6.5,                                    ! Wind Speed {m/s}
  170,                                    ! Wind Direction {deg}
  0,                                      ! Sky Clearness
  0,                                      ! Rain Indicator
  0,                                      ! Snow Indicator
  21,                                     ! Day of Month
  7,                                      ! Month
  SummerDesignDay,                        ! Day Type
  0,                                      ! Daylight Saving Time Indicator
  Dewpoint,                               ! Humidity Indicating Type
  ,                                       ! Humidity Indicating Day Schedule Name
  DefaultMultipliers,                     ! Dry-Bulb Temperature Range Modifier Type
  ,                                       ! Dry-Bulb Temperature Range Modifier Schedule Name
  ASHRAETau,                              ! Solar Model Indicator
  ,                                       ! Beam Solar Day Schedule Name
  ,                                       ! Diffuse Solar Day Schedule Name
  0.396,                                  ! ASHRAE Taub {dimensionless}
  2.253;                                  ! ASHRAE Taud {dimensionless}

OS:ComponentData,
  {682dbf8e-5b00-4978-8191-69707d4ee5e7}, ! Handle
  Component Data 1,                       ! Name
  {233e32f5-49e4-476f-8ffc-ebeafa9edea8}, ! UUID
  {e706f0b8-f06f-40b8-a00d-1023caaabc66}, ! Version UUID
  1366309033,                             ! Creation Timestamp
  1366309033,                             ! Version Timestamp
  {83c78b65-c255-4f17-bccd-c2d6ab8e9ba1}; ! Name of Object 1

