
OS:Version,
  {104f9c76-f239-483f-ace1-9d46dd30970f}, ! Handle
  0.9.3;                                  ! Version Identifier

OS:SizingPeriod:DesignDay,
  {f912b1a8-11be-47ef-b73e-d61f07b3f2c2}, ! Handle
  Batesville  Awos Ann Hum_n 99.6% Condns DP=>MCDB, ! Name
  -6.2,                                   ! Maximum Dry-Bulb Temperature {C}
  0,                                      ! Daily Dry-Bulb Temperature Range {deltaC}
  -17.3,                                  ! Humidity Indicating Conditions at Maximum Dry-Bulb {BasedOnField A3}
  99643,                                  ! Barometric Pressure {Pa}
  2.1,                                    ! Wind Speed {m/s}
  330,                                    ! Wind Direction {deg}
  0,                                      ! Sky Clearness
  0,                                      ! Rain Indicator
  0,                                      ! Snow Indicator
  21,                                     ! Day of Month
  1,                                      ! Month
  WinterDesignDay,                        ! Day Type
  0,                                      ! Daylight Saving Time Indicator
  Dewpoint,                               ! Humidity Indicating Type
  ,                                       ! Humidity Indicating Day Schedule Name
  DefaultMultipliers,                     ! Dry-Bulb Temperature Range Modifier Type
  ,                                       ! Dry-Bulb Temperature Range Modifier Schedule Name
  ASHRAEClearSky;                         ! Solar Model Indicator

OS:ComponentData,
  {4b5223c6-1118-4fd1-8fd2-298890f6bb2c}, ! Handle
  Component Data 1,                       ! Name
  {6087dd2c-d401-4b4b-8783-b35607bab2e2}, ! UUID
  {3e3fb46b-b5f4-4cf8-b47c-777339291ed1}, ! Version UUID
  1366306056,                             ! Creation Timestamp
  1366306056,                             ! Version Timestamp
  {f912b1a8-11be-47ef-b73e-d61f07b3f2c2}; ! Name of Object 1

