
OS:Version,
  {516e1ab3-185f-45ab-b015-77fce25729a5}, ! Handle
  0.9.3;                                  ! Version Identifier

OS:SizingPeriod:DesignDay,
  {00b9951e-f48b-4eca-83f3-e955057c3a1a}, ! Handle
  COLUMBIA Ann Htg 99.6% Condns DB,       ! Name
  -17,                                    ! Maximum Dry-Bulb Temperature {C}
  0,                                      ! Daily Dry-Bulb Temperature Range {deltaC}
  -17,                                    ! Humidity Indicating Conditions at Maximum Dry-Bulb {BasedOnField A3}
  98123,                                  ! Barometric Pressure {Pa}
  4.4,                                    ! Wind Speed {m/s}
  280,                                    ! Wind Direction {deg}
  0,                                      ! Sky Clearness
  0,                                      ! Rain Indicator
  0,                                      ! Snow Indicator
  21,                                     ! Day of Month
  1,                                      ! Month
  WinterDesignDay,                        ! Day Type
  0,                                      ! Daylight Saving Time Indicator
  Wetbulb,                                ! Humidity Indicating Type
  ,                                       ! Humidity Indicating Day Schedule Name
  DefaultMultipliers,                     ! Dry-Bulb Temperature Range Modifier Type
  ,                                       ! Dry-Bulb Temperature Range Modifier Schedule Name
  ASHRAEClearSky;                         ! Solar Model Indicator

OS:ComponentData,
  {a482bcba-5661-4416-a4ec-fea0ff59bd62}, ! Handle
  Component Data 1,                       ! Name
  {5dd9c6cd-c919-444b-8eb6-8491ae9f4161}, ! UUID
  {e716a695-7fe3-4bfe-872a-af4caaeb5e42}, ! Version UUID
  1366308479,                             ! Creation Timestamp
  1366308479,                             ! Version Timestamp
  {00b9951e-f48b-4eca-83f3-e955057c3a1a}; ! Name of Object 1

