
OS:Version,
  {9c5aaf0b-8232-42a2-882f-83ccfb8082fd}, ! Handle
  0.9.3;                                  ! Version Identifier

OS:SizingPeriod:DesignDay,
  {e7366f3a-841b-47cb-82d9-4609b78ee539}, ! Handle
  Denver-Stapleton Ann Clg .4% Condns DP=>MDB, ! Name
  20,                                     ! Maximum Dry-Bulb Temperature {C}
  15.2,                                   ! Daily Dry-Bulb Temperature Range {deltaC}
  15.7,                                   ! Humidity Indicating Conditions at Maximum Dry-Bulb {BasedOnField A3}
  83411,                                  ! Barometric Pressure {Pa}
  4,                                      ! Wind Speed {m/s}
  120,                                    ! Wind Direction {deg}
  0,                                      ! Sky Clearness
  0,                                      ! Rain Indicator
  0,                                      ! Snow Indicator
  21,                                     ! Day of Month
  7,                                      ! Month
  SummerDesignDay,                        ! Day Type
  0,                                      ! Daylight Saving Time Indicator
  Dewpoint,                               ! Humidity Indicating Type
  ,                                       ! Humidity Indicating Day Schedule Name
  DefaultMultipliers,                     ! Dry-Bulb Temperature Range Modifier Type
  ,                                       ! Dry-Bulb Temperature Range Modifier Schedule Name
  ASHRAETau,                              ! Solar Model Indicator
  ,                                       ! Beam Solar Day Schedule Name
  ,                                       ! Diffuse Solar Day Schedule Name
  0.435,                                  ! ASHRAE Taub {dimensionless}
  1.996;                                  ! ASHRAE Taud {dimensionless}

OS:ComponentData,
  {fda51d3f-c05a-4b38-9d1b-52fa4359a194}, ! Handle
  Component Data 1,                       ! Name
  {c05dfe3a-bdb8-44e5-a6eb-39f821d448c4}, ! UUID
  {e621655a-6b1f-46d3-a83d-fbbd192770ab}, ! Version UUID
  1366306674,                             ! Creation Timestamp
  1366306674,                             ! Version Timestamp
  {e7366f3a-841b-47cb-82d9-4609b78ee539}; ! Name of Object 1

