
OS:Version,
  {657c754a-998f-4ac6-a22a-33f008c4dc50}, ! Handle
  0.9.3;                                  ! Version Identifier

OS:SizingPeriod:DesignDay,
  {d1474ff1-5120-4707-82a5-8d9e80833f31}, ! Handle
  HILO Ann Clg 2% Condns DP=>MDB,         ! Name
  25.6,                                   ! Maximum Dry-Bulb Temperature {C}
  7,                                      ! Daily Dry-Bulb Temperature Range {deltaC}
  23,                                     ! Humidity Indicating Conditions at Maximum Dry-Bulb {BasedOnField A3}
  101193,                                 ! Barometric Pressure {Pa}
  4.8,                                    ! Wind Speed {m/s}
  90,                                     ! Wind Direction {deg}
  0,                                      ! Sky Clearness
  0,                                      ! Rain Indicator
  0,                                      ! Snow Indicator
  21,                                     ! Day of Month
  8,                                      ! Month
  SummerDesignDay,                        ! Day Type
  0,                                      ! Daylight Saving Time Indicator
  Dewpoint,                               ! Humidity Indicating Type
  ,                                       ! Humidity Indicating Day Schedule Name
  DefaultMultipliers,                     ! Dry-Bulb Temperature Range Modifier Type
  ,                                       ! Dry-Bulb Temperature Range Modifier Schedule Name
  ASHRAETau,                              ! Solar Model Indicator
  ,                                       ! Beam Solar Day Schedule Name
  ,                                       ! Diffuse Solar Day Schedule Name
  0.411,                                  ! ASHRAE Taub {dimensionless}
  2.427;                                  ! ASHRAE Taud {dimensionless}

OS:ComponentData,
  {89afae6d-144d-4ab9-bdc3-031c1e06a7e2}, ! Handle
  Component Data 1,                       ! Name
  {34d15014-38f1-4c07-b4d0-c6101f128ad8}, ! UUID
  {a473bdf4-247f-4e4c-9ab9-ac6a6d074d63}, ! Version UUID
  1366307078,                             ! Creation Timestamp
  1366307078,                             ! Version Timestamp
  {d1474ff1-5120-4707-82a5-8d9e80833f31}; ! Name of Object 1

