
OS:Version,
  {563c6386-1db7-42e7-9c5d-be276b843f0b}, ! Handle
  0.9.3;                                  ! Version Identifier

OS:SizingPeriod:DesignDay,
  {87291516-4c14-4562-bd81-8452e3681e7b}, ! Handle
  Erie International Ap Ann Clg 2% Condns DB=>MWB, ! Name
  27.6,                                   ! Maximum Dry-Bulb Temperature {C}
  8.3,                                    ! Daily Dry-Bulb Temperature Range {deltaC}
  21.5,                                   ! Humidity Indicating Conditions at Maximum Dry-Bulb {BasedOnField A3}
  98686,                                  ! Barometric Pressure {Pa}
  5,                                      ! Wind Speed {m/s}
  260,                                    ! Wind Direction {deg}
  0,                                      ! Sky Clearness
  0,                                      ! Rain Indicator
  0,                                      ! Snow Indicator
  21,                                     ! Day of Month
  7,                                      ! Month
  SummerDesignDay,                        ! Day Type
  0,                                      ! Daylight Saving Time Indicator
  Wetbulb,                                ! Humidity Indicating Type
  ,                                       ! Humidity Indicating Day Schedule Name
  DefaultMultipliers,                     ! Dry-Bulb Temperature Range Modifier Type
  ,                                       ! Dry-Bulb Temperature Range Modifier Schedule Name
  ASHRAETau,                              ! Solar Model Indicator
  ,                                       ! Beam Solar Day Schedule Name
  ,                                       ! Diffuse Solar Day Schedule Name
  0.455,                                  ! ASHRAE Taub {dimensionless}
  2.041;                                  ! ASHRAE Taud {dimensionless}

OS:ComponentData,
  {07badc6f-e336-4414-ab87-945b437cc493}, ! Handle
  Component Data 1,                       ! Name
  {c746af89-24d3-4064-8278-10dfe916855a}, ! UUID
  {c94c36af-3f79-4976-af83-6f25fd3abee3}, ! Version UUID
  1366310174,                             ! Creation Timestamp
  1366310174,                             ! Version Timestamp
  {87291516-4c14-4562-bd81-8452e3681e7b}; ! Name of Object 1

