
OS:Version,
  {ec4718e4-5b71-41d9-87d8-438b0891a2c6}, ! Handle
  0.9.3;                                  ! Version Identifier

OS:SizingPeriod:DesignDay,
  {6d3d527b-2d7f-40a1-99e8-e7b4665f3d09}, ! Handle
  Charleston Yeager Arpt Ann Htg Wind 99% Condns WS=>MCDB, ! Name
  3.5,                                    ! Maximum Dry-Bulb Temperature {C}
  0,                                      ! Daily Dry-Bulb Temperature Range {deltaC}
  3.5,                                    ! Humidity Indicating Conditions at Maximum Dry-Bulb {BasedOnField A3}
  97656,                                  ! Barometric Pressure {Pa}
  8.4,                                    ! Wind Speed {m/s}
  240,                                    ! Wind Direction {deg}
  0,                                      ! Sky Clearness
  0,                                      ! Rain Indicator
  0,                                      ! Snow Indicator
  21,                                     ! Day of Month
  1,                                      ! Month
  WinterDesignDay,                        ! Day Type
  0,                                      ! Daylight Saving Time Indicator
  Wetbulb,                                ! Humidity Indicating Type
  ,                                       ! Humidity Indicating Day Schedule Name
  DefaultMultipliers,                     ! Dry-Bulb Temperature Range Modifier Type
  ,                                       ! Dry-Bulb Temperature Range Modifier Schedule Name
  ASHRAEClearSky;                         ! Solar Model Indicator

OS:ComponentData,
  {8ca54edf-35a8-4696-a089-3638d9ab2d68}, ! Handle
  Component Data 1,                       ! Name
  {f4260e35-b6f6-4382-8c9a-d0b6a579fadd}, ! UUID
  {075ac14e-cdb3-4577-8d86-41a287468acd}, ! Version UUID
  1366311624,                             ! Creation Timestamp
  1366311624,                             ! Version Timestamp
  {6d3d527b-2d7f-40a1-99e8-e7b4665f3d09}; ! Name of Object 1

