
OS:Version,
  {306dde2a-c3ef-46f4-a260-f60c2de8630b}, ! Handle
  0.9.3;                                  ! Version Identifier

OS:SizingPeriod:DesignDay,
  {82748f1e-f693-4149-91c0-8eaa0ed061a8}, ! Handle
  Kotzebue Ralph Wein Memorial Ann Hum_n 99.6% Condns DP=>MCDB, ! Name
  -34.2,                                  ! Maximum Dry-Bulb Temperature {C}
  0,                                      ! Daily Dry-Bulb Temperature Range {deltaC}
  -39.4,                                  ! Humidity Indicating Conditions at Maximum Dry-Bulb {BasedOnField A3}
  101289,                                 ! Barometric Pressure {Pa}
  2.6,                                    ! Wind Speed {m/s}
  80,                                     ! Wind Direction {deg}
  0,                                      ! Sky Clearness
  0,                                      ! Rain Indicator
  0,                                      ! Snow Indicator
  21,                                     ! Day of Month
  1,                                      ! Month
  WinterDesignDay,                        ! Day Type
  0,                                      ! Daylight Saving Time Indicator
  Dewpoint,                               ! Humidity Indicating Type
  ,                                       ! Humidity Indicating Day Schedule Name
  DefaultMultipliers,                     ! Dry-Bulb Temperature Range Modifier Type
  ,                                       ! Dry-Bulb Temperature Range Modifier Schedule Name
  ASHRAEClearSky;                         ! Solar Model Indicator

OS:ComponentData,
  {a2a77950-e085-40af-8afa-43ca6b36f4af}, ! Handle
  Component Data 1,                       ! Name
  {abc22697-c69a-43c2-a1aa-778882e8b661}, ! UUID
  {f855ef65-da7d-4472-a243-53febfde98f0}, ! Version UUID
  1366305387,                             ! Creation Timestamp
  1366305387,                             ! Version Timestamp
  {82748f1e-f693-4149-91c0-8eaa0ed061a8}; ! Name of Object 1

