
OS:Version,
  {d562acdf-5ef8-44f0-9748-cddba27c8010}, ! Handle
  0.9.3;                                  ! Version Identifier

OS:SizingPeriod:DesignDay,
  {2ff9771b-00e3-4405-9091-89a418d67090}, ! Handle
  Brownsville S Padre Isl Intl Ann Clg .4% Condns DB=>MWB, ! Name
  35.3,                                   ! Maximum Dry-Bulb Temperature {C}
  9.5,                                    ! Daily Dry-Bulb Temperature Range {deltaC}
  25.4,                                   ! Humidity Indicating Conditions at Maximum Dry-Bulb {BasedOnField A3}
  101253,                                 ! Barometric Pressure {Pa}
  6.9,                                    ! Wind Speed {m/s}
  160,                                    ! Wind Direction {deg}
  0,                                      ! Sky Clearness
  0,                                      ! Rain Indicator
  0,                                      ! Snow Indicator
  21,                                     ! Day of Month
  8,                                      ! Month
  SummerDesignDay,                        ! Day Type
  0,                                      ! Daylight Saving Time Indicator
  Wetbulb,                                ! Humidity Indicating Type
  ,                                       ! Humidity Indicating Day Schedule Name
  DefaultMultipliers,                     ! Dry-Bulb Temperature Range Modifier Type
  ,                                       ! Dry-Bulb Temperature Range Modifier Schedule Name
  ASHRAETau,                              ! Solar Model Indicator
  ,                                       ! Beam Solar Day Schedule Name
  ,                                       ! Diffuse Solar Day Schedule Name
  0.465,                                  ! ASHRAE Taub {dimensionless}
  2.114;                                  ! ASHRAE Taud {dimensionless}

OS:ComponentData,
  {2cd77475-cfeb-40d9-b97a-302aef57ef27}, ! Handle
  Component Data 1,                       ! Name
  {5a9a40bb-51bb-41ae-b705-ae56ea78c296}, ! UUID
  {fb34de05-2d29-4dd7-ae4e-b126cc43ca74}, ! Version UUID
  1366310605,                             ! Creation Timestamp
  1366310605,                             ! Version Timestamp
  {2ff9771b-00e3-4405-9091-89a418d67090}; ! Name of Object 1

