
OS:Version,
  {196819b0-fc79-4481-8662-7ae5895c7e6b}, ! Handle
  0.9.3;                                  ! Version Identifier

OS:SizingPeriod:DesignDay,
  {54457aac-44c7-4325-9d91-30c3dd00a381}, ! Handle
  Fort Sill Post Field Af Ann Htg Wind 99% Condns WS=>MCDB, ! Name
  2.7,                                    ! Maximum Dry-Bulb Temperature {C}
  0,                                      ! Daily Dry-Bulb Temperature Range {deltaC}
  2.7,                                    ! Humidity Indicating Conditions at Maximum Dry-Bulb {BasedOnField A3}
  96970,                                  ! Barometric Pressure {Pa}
  11.9,                                   ! Wind Speed {m/s}
  10,                                     ! Wind Direction {deg}
  0,                                      ! Sky Clearness
  0,                                      ! Rain Indicator
  0,                                      ! Snow Indicator
  21,                                     ! Day of Month
  1,                                      ! Month
  WinterDesignDay,                        ! Day Type
  0,                                      ! Daylight Saving Time Indicator
  Wetbulb,                                ! Humidity Indicating Type
  ,                                       ! Humidity Indicating Day Schedule Name
  DefaultMultipliers,                     ! Dry-Bulb Temperature Range Modifier Type
  ,                                       ! Dry-Bulb Temperature Range Modifier Schedule Name
  ASHRAEClearSky;                         ! Solar Model Indicator

OS:ComponentData,
  {fa5b050c-c035-4efc-b4ac-428decc2906b}, ! Handle
  Component Data 1,                       ! Name
  {8dfaa2d8-d487-4332-bd98-ea99507f05cf}, ! UUID
  {0e0d85eb-e4a2-485b-8d7b-6cf23cce3b1f}, ! Version UUID
  1366309888,                             ! Creation Timestamp
  1366309888,                             ! Version Timestamp
  {54457aac-44c7-4325-9d91-30c3dd00a381}; ! Name of Object 1

