
OS:Version,
  {347355e6-ef33-4fe0-9034-d76d6202fc32}, ! Handle
  0.9.3;                                  ! Version Identifier

OS:SizingPeriod:DesignDay,
  {e3747271-c341-4d86-b389-b03767b196ad}, ! Handle
  Columbus Metropolitan Arpt Ann Htg Wind 99% Condns WS=>MCDB, ! Name
  7.9,                                    ! Maximum Dry-Bulb Temperature {C}
  0,                                      ! Daily Dry-Bulb Temperature Range {deltaC}
  7.9,                                    ! Humidity Indicating Conditions at Maximum Dry-Bulb {BasedOnField A3}
  99892,                                  ! Barometric Pressure {Pa}
  8.5,                                    ! Wind Speed {m/s}
  330,                                    ! Wind Direction {deg}
  0,                                      ! Sky Clearness
  0,                                      ! Rain Indicator
  0,                                      ! Snow Indicator
  21,                                     ! Day of Month
  1,                                      ! Month
  WinterDesignDay,                        ! Day Type
  0,                                      ! Daylight Saving Time Indicator
  Wetbulb,                                ! Humidity Indicating Type
  ,                                       ! Humidity Indicating Day Schedule Name
  DefaultMultipliers,                     ! Dry-Bulb Temperature Range Modifier Type
  ,                                       ! Dry-Bulb Temperature Range Modifier Schedule Name
  ASHRAEClearSky;                         ! Solar Model Indicator

OS:ComponentData,
  {4f20e1f1-425d-4b3a-8d13-7986a90e0298}, ! Handle
  Component Data 1,                       ! Name
  {503e2785-06a3-487e-8b75-c4718e3c6d21}, ! UUID
  {151d41ce-44c6-43ae-aba3-dfe665b5ef0b}, ! Version UUID
  1366307003,                             ! Creation Timestamp
  1366307003,                             ! Version Timestamp
  {e3747271-c341-4d86-b389-b03767b196ad}; ! Name of Object 1

