
OS:Version,
  {d3fb7217-4281-409d-a488-9d1ea10661c3}, ! Handle
  0.9.3;                                  ! Version Identifier

OS:SizingPeriod:DesignDay,
  {e909ca67-1f16-461d-aa39-455f000e8146}, ! Handle
  LANDER Ann Htg Wind 99% Condns WS=>MCDB, ! Name
  4.1,                                    ! Maximum Dry-Bulb Temperature {C}
  0,                                      ! Daily Dry-Bulb Temperature Range {deltaC}
  4.1,                                    ! Humidity Indicating Conditions at Maximum Dry-Bulb {BasedOnField A3}
  82542,                                  ! Barometric Pressure {Pa}
  10.4,                                   ! Wind Speed {m/s}
  140,                                    ! Wind Direction {deg}
  0,                                      ! Sky Clearness
  0,                                      ! Rain Indicator
  0,                                      ! Snow Indicator
  21,                                     ! Day of Month
  12,                                     ! Month
  WinterDesignDay,                        ! Day Type
  0,                                      ! Daylight Saving Time Indicator
  Wetbulb,                                ! Humidity Indicating Type
  ,                                       ! Humidity Indicating Day Schedule Name
  DefaultMultipliers,                     ! Dry-Bulb Temperature Range Modifier Type
  ,                                       ! Dry-Bulb Temperature Range Modifier Schedule Name
  ASHRAEClearSky;                         ! Solar Model Indicator

OS:ComponentData,
  {9ba6b0e1-3194-4cb2-96c9-1c7dea530dbf}, ! Handle
  Component Data 1,                       ! Name
  {b14d98b7-fa2c-4ef1-966c-2eae9d464c2d}, ! UUID
  {72b65ea0-a2fd-41aa-a8ad-851faf7985cf}, ! Version UUID
  1366311754,                             ! Creation Timestamp
  1366311754,                             ! Version Timestamp
  {e909ca67-1f16-461d-aa39-455f000e8146}; ! Name of Object 1

