
OS:Version,
  {afb8fbaa-9d16-4a01-a93e-c2fc60319b88}, ! Handle
  0.9.3;                                  ! Version Identifier

OS:SizingPeriod:DesignDay,
  {1a3e5873-0b78-49b9-a62d-3df171f8ee4b}, ! Handle
  Florence Regional Ap Ann Hum_n 99% Condns DP=>MCDB, ! Name
  2,                                      ! Maximum Dry-Bulb Temperature {C}
  0,                                      ! Daily Dry-Bulb Temperature Range {deltaC}
  -11.9,                                  ! Humidity Indicating Conditions at Maximum Dry-Bulb {BasedOnField A3}
  100798,                                 ! Barometric Pressure {Pa}
  2.6,                                    ! Wind Speed {m/s}
  0,                                      ! Wind Direction {deg}
  0,                                      ! Sky Clearness
  0,                                      ! Rain Indicator
  0,                                      ! Snow Indicator
  21,                                     ! Day of Month
  1,                                      ! Month
  WinterDesignDay,                        ! Day Type
  0,                                      ! Daylight Saving Time Indicator
  Dewpoint,                               ! Humidity Indicating Type
  ,                                       ! Humidity Indicating Day Schedule Name
  DefaultMultipliers,                     ! Dry-Bulb Temperature Range Modifier Type
  ,                                       ! Dry-Bulb Temperature Range Modifier Schedule Name
  ASHRAEClearSky;                         ! Solar Model Indicator

OS:ComponentData,
  {7bdadf4e-294d-45ea-8796-7e423f1420e8}, ! Handle
  Component Data 1,                       ! Name
  {7cc758fb-e8d1-49a6-a237-4334a52ad085}, ! UUID
  {0aef2b9d-b4de-4df1-8d2d-c025c1187f4a}, ! Version UUID
  1366310351,                             ! Creation Timestamp
  1366310351,                             ! Version Timestamp
  {1a3e5873-0b78-49b9-a62d-3df171f8ee4b}; ! Name of Object 1

