
OS:Version,
  {09fb420f-fc45-4751-86a8-a530bc39679f}, ! Handle
  0.9.3;                                  ! Version Identifier

OS:SizingPeriod:DesignDay,
  {69baa754-436d-4e43-bb3e-04e687762b02}, ! Handle
  Klamath Falls Intl Ap  Uo Ann Clg 1% Condns WB=>MDB, ! Name
  28.8,                                   ! Maximum Dry-Bulb Temperature {C}
  18.6,                                   ! Daily Dry-Bulb Temperature Range {deltaC}
  17.8,                                   ! Humidity Indicating Conditions at Maximum Dry-Bulb {BasedOnField A3}
  87502,                                  ! Barometric Pressure {Pa}
  3.5,                                    ! Wind Speed {m/s}
  320,                                    ! Wind Direction {deg}
  0,                                      ! Sky Clearness
  0,                                      ! Rain Indicator
  0,                                      ! Snow Indicator
  21,                                     ! Day of Month
  7,                                      ! Month
  SummerDesignDay,                        ! Day Type
  0,                                      ! Daylight Saving Time Indicator
  Wetbulb,                                ! Humidity Indicating Type
  ,                                       ! Humidity Indicating Day Schedule Name
  DefaultMultipliers,                     ! Dry-Bulb Temperature Range Modifier Type
  ,                                       ! Dry-Bulb Temperature Range Modifier Schedule Name
  ASHRAETau,                              ! Solar Model Indicator
  ,                                       ! Beam Solar Day Schedule Name
  ,                                       ! Diffuse Solar Day Schedule Name
  0.327,                                  ! ASHRAE Taub {dimensionless}
  2.593;                                  ! ASHRAE Taud {dimensionless}

