
OS:Version,
  {881fe6e7-92fe-46ac-92d5-bdf1d326caac}, ! Handle
  0.9.3;                                  ! Version Identifier

OS:SizingPeriod:DesignDay,
  {5624cfd7-0c43-4477-82b7-2bf4cf3f0387}, ! Handle
  Bradford Regional Ap Ann Htg Wind 99.6% Condns WS=>MCDB, ! Name
  -7.3,                                   ! Maximum Dry-Bulb Temperature {C}
  0,                                      ! Daily Dry-Bulb Temperature Range {deltaC}
  -7.3,                                   ! Humidity Indicating Conditions at Maximum Dry-Bulb {BasedOnField A3}
  93813,                                  ! Barometric Pressure {Pa}
  10.6,                                   ! Wind Speed {m/s}
  270,                                    ! Wind Direction {deg}
  0,                                      ! Sky Clearness
  0,                                      ! Rain Indicator
  0,                                      ! Snow Indicator
  21,                                     ! Day of Month
  1,                                      ! Month
  WinterDesignDay,                        ! Day Type
  0,                                      ! Daylight Saving Time Indicator
  Wetbulb,                                ! Humidity Indicating Type
  ,                                       ! Humidity Indicating Day Schedule Name
  DefaultMultipliers,                     ! Dry-Bulb Temperature Range Modifier Type
  ,                                       ! Dry-Bulb Temperature Range Modifier Schedule Name
  ASHRAEClearSky;                         ! Solar Model Indicator

OS:ComponentData,
  {4502bc37-a547-487d-9da5-f3813221be70}, ! Handle
  Component Data 1,                       ! Name
  {e5a61c56-6e15-40d6-b0e8-f5b53a095a8c}, ! UUID
  {e7e1419a-35cc-47e6-8472-7c9bfaab4cc7}, ! Version UUID
  1366310148,                             ! Creation Timestamp
  1366310148,                             ! Version Timestamp
  {5624cfd7-0c43-4477-82b7-2bf4cf3f0387}; ! Name of Object 1

