
OS:Version,
  {364a5503-22e1-46d5-8543-44ef573f9495}, ! Handle
  0.9.3;                                  ! Version Identifier

OS:SizingPeriod:DesignDay,
  {a0d56ff6-fc24-4699-b91c-84fe575b3b4c}, ! Handle
  Jackson Hole Ann Clg 1% Condns DP=>MDB, ! Name
  16.1,                                   ! Maximum Dry-Bulb Temperature {C}
  19,                                     ! Daily Dry-Bulb Temperature Range {deltaC}
  9.9,                                    ! Humidity Indicating Conditions at Maximum Dry-Bulb {BasedOnField A3}
  79337,                                  ! Barometric Pressure {Pa}
  5,                                      ! Wind Speed {m/s}
  250,                                    ! Wind Direction {deg}
  0,                                      ! Sky Clearness
  0,                                      ! Rain Indicator
  0,                                      ! Snow Indicator
  21,                                     ! Day of Month
  7,                                      ! Month
  SummerDesignDay,                        ! Day Type
  0,                                      ! Daylight Saving Time Indicator
  Dewpoint,                               ! Humidity Indicating Type
  ,                                       ! Humidity Indicating Day Schedule Name
  DefaultMultipliers,                     ! Dry-Bulb Temperature Range Modifier Type
  ,                                       ! Dry-Bulb Temperature Range Modifier Schedule Name
  ASHRAETau,                              ! Solar Model Indicator
  ,                                       ! Beam Solar Day Schedule Name
  ,                                       ! Diffuse Solar Day Schedule Name
  0.353,                                  ! ASHRAE Taub {dimensionless}
  2.297;                                  ! ASHRAE Taud {dimensionless}

