
OS:Version,
  {12218f1f-1a0f-4f7a-a741-28b924ca3deb}, ! Handle
  0.9.3;                                  ! Version Identifier

OS:SizingPeriod:DesignDay,
  {e1584216-7905-42db-9685-f5f308bc295f}, ! Handle
  Austin Mueller Municipal Ap Ann Clg 1% Condns DB=>MWB, ! Name
  36.6,                                   ! Maximum Dry-Bulb Temperature {C}
  12.5,                                   ! Daily Dry-Bulb Temperature Range {deltaC}
  24,                                     ! Humidity Indicating Conditions at Maximum Dry-Bulb {BasedOnField A3}
  98792,                                  ! Barometric Pressure {Pa}
  3.7,                                    ! Wind Speed {m/s}
  190,                                    ! Wind Direction {deg}
  0,                                      ! Sky Clearness
  0,                                      ! Rain Indicator
  0,                                      ! Snow Indicator
  21,                                     ! Day of Month
  8,                                      ! Month
  SummerDesignDay,                        ! Day Type
  0,                                      ! Daylight Saving Time Indicator
  Wetbulb,                                ! Humidity Indicating Type
  ,                                       ! Humidity Indicating Day Schedule Name
  DefaultMultipliers,                     ! Dry-Bulb Temperature Range Modifier Type
  ,                                       ! Dry-Bulb Temperature Range Modifier Schedule Name
  ASHRAETau,                              ! Solar Model Indicator
  ,                                       ! Beam Solar Day Schedule Name
  ,                                       ! Diffuse Solar Day Schedule Name
  0.457,                                  ! ASHRAE Taub {dimensionless}
  2.114;                                  ! ASHRAE Taud {dimensionless}

OS:ComponentData,
  {28062373-d903-4144-86b0-088c88779464}, ! Handle
  Component Data 1,                       ! Name
  {3bde9dd4-ab73-4e74-acd7-379af04d2dc5}, ! UUID
  {9a441e30-69b0-4be4-87cd-b31068f591a0}, ! Version UUID
  1366310586,                             ! Creation Timestamp
  1366310586,                             ! Version Timestamp
  {e1584216-7905-42db-9685-f5f308bc295f}; ! Name of Object 1

