
OS:Version,
  {ceee2539-603d-4dbf-94ab-bd42d40658b9}, ! Handle
  0.9.3;                                  ! Version Identifier

OS:SizingPeriod:DesignDay,
  {9ec1a5a1-6e89-4b5f-a647-83eb2780eb94}, ! Handle
  Casper Natrona Co Intl Ap Ann Clg 2% Condns DB=>MWB, ! Name
  31.2,                                   ! Maximum Dry-Bulb Temperature {C}
  18.1,                                   ! Daily Dry-Bulb Temperature Range {deltaC}
  14.8,                                   ! Humidity Indicating Conditions at Maximum Dry-Bulb {BasedOnField A3}
  83246,                                  ! Barometric Pressure {Pa}
  5.5,                                    ! Wind Speed {m/s}
  230,                                    ! Wind Direction {deg}
  0,                                      ! Sky Clearness
  0,                                      ! Rain Indicator
  0,                                      ! Snow Indicator
  21,                                     ! Day of Month
  7,                                      ! Month
  SummerDesignDay,                        ! Day Type
  0,                                      ! Daylight Saving Time Indicator
  Wetbulb,                                ! Humidity Indicating Type
  ,                                       ! Humidity Indicating Day Schedule Name
  DefaultMultipliers,                     ! Dry-Bulb Temperature Range Modifier Type
  ,                                       ! Dry-Bulb Temperature Range Modifier Schedule Name
  ASHRAETau,                              ! Solar Model Indicator
  ,                                       ! Beam Solar Day Schedule Name
  ,                                       ! Diffuse Solar Day Schedule Name
  0.411,                                  ! ASHRAE Taub {dimensionless}
  2.017;                                  ! ASHRAE Taud {dimensionless}

OS:ComponentData,
  {ab49f952-4dba-418b-8edf-1759325a5531}, ! Handle
  Component Data 1,                       ! Name
  {bb7f12c4-f8a5-4ffe-a39c-e2120fca18b7}, ! UUID
  {e6fd1ba7-c7d6-44a9-a1fe-51eb797e54ed}, ! Version UUID
  1366311689,                             ! Creation Timestamp
  1366311689,                             ! Version Timestamp
  {9ec1a5a1-6e89-4b5f-a647-83eb2780eb94}; ! Name of Object 1

