
OS:Version,
  {67fb9ac0-881f-49ee-ba22-73115f2d7a31}, ! Handle
  0.9.3;                                  ! Version Identifier

OS:SizingPeriod:DesignDay,
  {a9ffbc1e-7795-4684-9bac-ffa9baead387}, ! Handle
  Allentown Lehigh Valley Intl Ann Clg .4% Condns DB=>MWB, ! Name
  32.8,                                   ! Maximum Dry-Bulb Temperature {C}
  10.7,                                   ! Daily Dry-Bulb Temperature Range {deltaC}
  23.2,                                   ! Humidity Indicating Conditions at Maximum Dry-Bulb {BasedOnField A3}
  99904,                                  ! Barometric Pressure {Pa}
  4.6,                                    ! Wind Speed {m/s}
  240,                                    ! Wind Direction {deg}
  0,                                      ! Sky Clearness
  0,                                      ! Rain Indicator
  0,                                      ! Snow Indicator
  21,                                     ! Day of Month
  7,                                      ! Month
  SummerDesignDay,                        ! Day Type
  0,                                      ! Daylight Saving Time Indicator
  Wetbulb,                                ! Humidity Indicating Type
  ,                                       ! Humidity Indicating Day Schedule Name
  DefaultMultipliers,                     ! Dry-Bulb Temperature Range Modifier Type
  ,                                       ! Dry-Bulb Temperature Range Modifier Schedule Name
  ASHRAETau,                              ! Solar Model Indicator
  ,                                       ! Beam Solar Day Schedule Name
  ,                                       ! Diffuse Solar Day Schedule Name
  0.504,                                  ! ASHRAE Taub {dimensionless}
  1.885;                                  ! ASHRAE Taud {dimensionless}

OS:ComponentData,
  {8d3e1b43-3e96-4109-ab07-09ceb77ed63b}, ! Handle
  Component Data 1,                       ! Name
  {69d25e39-bbca-405c-a19f-8847c373ac4e}, ! UUID
  {90492ad3-7220-4a3f-98f3-2024afd492dc}, ! Version UUID
  1366310131,                             ! Creation Timestamp
  1366310131,                             ! Version Timestamp
  {a9ffbc1e-7795-4684-9bac-ffa9baead387}; ! Name of Object 1

