
OS:Version,
  {1e570e56-7adb-4bf0-a522-b33c6be61f9e}, ! Handle
  0.9.3;                                  ! Version Identifier

OS:SizingPeriod:DesignDay,
  {c32b71af-1b1b-43b9-8e4d-d97fb78006e1}, ! Handle
  Limon Ann Clg .4% Condns DP=>MDB,       ! Name
  19.9,                                   ! Maximum Dry-Bulb Temperature {C}
  16.7,                                   ! Daily Dry-Bulb Temperature Range {deltaC}
  16.3,                                   ! Humidity Indicating Conditions at Maximum Dry-Bulb {BasedOnField A3}
  82552,                                  ! Barometric Pressure {Pa}
  5.5,                                    ! Wind Speed {m/s}
  170,                                    ! Wind Direction {deg}
  0,                                      ! Sky Clearness
  0,                                      ! Rain Indicator
  0,                                      ! Snow Indicator
  21,                                     ! Day of Month
  7,                                      ! Month
  SummerDesignDay,                        ! Day Type
  0,                                      ! Daylight Saving Time Indicator
  Dewpoint,                               ! Humidity Indicating Type
  ,                                       ! Humidity Indicating Day Schedule Name
  DefaultMultipliers,                     ! Dry-Bulb Temperature Range Modifier Type
  ,                                       ! Dry-Bulb Temperature Range Modifier Schedule Name
  ASHRAETau,                              ! Solar Model Indicator
  ,                                       ! Beam Solar Day Schedule Name
  ,                                       ! Diffuse Solar Day Schedule Name
  0.412,                                  ! ASHRAE Taub {dimensionless}
  2.036;                                  ! ASHRAE Taud {dimensionless}

