
OS:Version,
  {4cd5f178-97be-4c49-b117-a3e481e1dc92}, ! Handle
  0.9.3;                                  ! Version Identifier

OS:SizingPeriod:DesignDay,
  {12363daf-dea7-4fbc-885b-c83ed23385b7}, ! Handle
  Cordova Ann Clg 2% Condns Enth=>MDB,    ! Name
  16.9,                                   ! Maximum Dry-Bulb Temperature {C}
  7.2,                                    ! Daily Dry-Bulb Temperature Range {deltaC}
  38800,                                  ! Humidity Indicating Conditions at Maximum Dry-Bulb {BasedOnField A3}
  101181,                                 ! Barometric Pressure {Pa}
  3,                                      ! Wind Speed {m/s}
  240,                                    ! Wind Direction {deg}
  0,                                      ! Sky Clearness
  0,                                      ! Rain Indicator
  0,                                      ! Snow Indicator
  21,                                     ! Day of Month
  7,                                      ! Month
  SummerDesignDay,                        ! Day Type
  0,                                      ! Daylight Saving Time Indicator
  Enthalpy,                               ! Humidity Indicating Type
  ,                                       ! Humidity Indicating Day Schedule Name
  DefaultMultipliers,                     ! Dry-Bulb Temperature Range Modifier Type
  ,                                       ! Dry-Bulb Temperature Range Modifier Schedule Name
  ASHRAETau,                              ! Solar Model Indicator
  ,                                       ! Beam Solar Day Schedule Name
  ,                                       ! Diffuse Solar Day Schedule Name
  0.388,                                  ! ASHRAE Taub {dimensionless}
  2.132;                                  ! ASHRAE Taud {dimensionless}

OS:ComponentData,
  {5579ff27-7e8c-48ec-abc6-b083f9aaa882}, ! Handle
  Component Data 1,                       ! Name
  {755666fd-5119-44d8-95b5-d252682c91b6}, ! UUID
  {cef946c7-ef5a-49f6-bf77-e79e6d7c93d5}, ! Version UUID
  1366304816,                             ! Creation Timestamp
  1366304816,                             ! Version Timestamp
  {12363daf-dea7-4fbc-885b-c83ed23385b7}; ! Name of Object 1

