
OS:Version,
  {6fd458c7-5ef6-4ebb-b56d-fe17701ffa04}, ! Handle
  0.9.3;                                  ! Version Identifier

OS:SizingPeriod:DesignDay,
  {1d682b20-abce-4cc1-8ca8-24eee8237c00}, ! Handle
  Greeley Weld  Awos Ann Clg 1% Condns WB=>MDB, ! Name
  28.7,                                   ! Maximum Dry-Bulb Temperature {C}
  17.5,                                   ! Daily Dry-Bulb Temperature Range {deltaC}
  18.7,                                   ! Humidity Indicating Conditions at Maximum Dry-Bulb {BasedOnField A3}
  85389,                                  ! Barometric Pressure {Pa}
  3.5,                                    ! Wind Speed {m/s}
  140,                                    ! Wind Direction {deg}
  0,                                      ! Sky Clearness
  0,                                      ! Rain Indicator
  0,                                      ! Snow Indicator
  21,                                     ! Day of Month
  7,                                      ! Month
  SummerDesignDay,                        ! Day Type
  0,                                      ! Daylight Saving Time Indicator
  Wetbulb,                                ! Humidity Indicating Type
  ,                                       ! Humidity Indicating Day Schedule Name
  DefaultMultipliers,                     ! Dry-Bulb Temperature Range Modifier Type
  ,                                       ! Dry-Bulb Temperature Range Modifier Schedule Name
  ASHRAETau,                              ! Solar Model Indicator
  ,                                       ! Beam Solar Day Schedule Name
  ,                                       ! Diffuse Solar Day Schedule Name
  0.429,                                  ! ASHRAE Taub {dimensionless}
  1.991;                                  ! ASHRAE Taud {dimensionless}

