
OS:Version,
  {2067f779-c280-4a30-9323-77217d2c418a}, ! Handle
  0.9.3;                                  ! Version Identifier

OS:SizingPeriod:DesignDay,
  {c17718f0-6957-4f6c-a2f6-c74d5f50fd0f}, ! Handle
  Hayward Air Term Ann Hum_n 99.6% Condns DP=>MCDB, ! Name
  12.7,                                   ! Maximum Dry-Bulb Temperature {C}
  0,                                      ! Daily Dry-Bulb Temperature Range {deltaC}
  -5.8,                                   ! Humidity Indicating Conditions at Maximum Dry-Bulb {BasedOnField A3}
  101157,                                 ! Barometric Pressure {Pa}
  1.6,                                    ! Wind Speed {m/s}
  60,                                     ! Wind Direction {deg}
  0,                                      ! Sky Clearness
  0,                                      ! Rain Indicator
  0,                                      ! Snow Indicator
  21,                                     ! Day of Month
  1,                                      ! Month
  WinterDesignDay,                        ! Day Type
  0,                                      ! Daylight Saving Time Indicator
  Dewpoint,                               ! Humidity Indicating Type
  ,                                       ! Humidity Indicating Day Schedule Name
  DefaultMultipliers,                     ! Dry-Bulb Temperature Range Modifier Type
  ,                                       ! Dry-Bulb Temperature Range Modifier Schedule Name
  ASHRAEClearSky;                         ! Solar Model Indicator

OS:ComponentData,
  {ef88e6c6-74ba-44d3-841b-f2e7403eb0e9}, ! Handle
  Component Data 1,                       ! Name
  {df951368-5181-47fa-a12a-a2ff0e1318c4}, ! UUID
  {d69d7c53-b751-49b9-88e0-fd0f5abe6353}, ! Version UUID
  1366306448,                             ! Creation Timestamp
  1366306448,                             ! Version Timestamp
  {c17718f0-6957-4f6c-a2f6-c74d5f50fd0f}; ! Name of Object 1

