
OS:Version,
  {319bb516-ec98-45b4-8bd3-14090f42b789}, ! Handle
  0.9.3;                                  ! Version Identifier

OS:SizingPeriod:DesignDay,
  {5d17bdd0-3ddd-436e-a330-d47fd007e76d}, ! Handle
  LITTLE_ROCK Ann Htg Wind 99.6% Condns WS=>MCDB, ! Name
  8.5,                                    ! Maximum Dry-Bulb Temperature {C}
  0,                                      ! Daily Dry-Bulb Temperature Range {deltaC}
  8.5,                                    ! Humidity Indicating Conditions at Maximum Dry-Bulb {BasedOnField A3}
  100356,                                 ! Barometric Pressure {Pa}
  9.3,                                    ! Wind Speed {m/s}
  350,                                    ! Wind Direction {deg}
  0,                                      ! Sky Clearness
  0,                                      ! Rain Indicator
  0,                                      ! Snow Indicator
  21,                                     ! Day of Month
  1,                                      ! Month
  WinterDesignDay,                        ! Day Type
  0,                                      ! Daylight Saving Time Indicator
  Wetbulb,                                ! Humidity Indicating Type
  ,                                       ! Humidity Indicating Day Schedule Name
  DefaultMultipliers,                     ! Dry-Bulb Temperature Range Modifier Type
  ,                                       ! Dry-Bulb Temperature Range Modifier Schedule Name
  ASHRAEClearSky;                         ! Solar Model Indicator

OS:ComponentData,
  {3b06b550-cb7d-4ccf-b2d7-b70a63b8472c}, ! Handle
  Component Data 1,                       ! Name
  {5a3a8df3-c731-44cf-b545-e01b8d8743d8}, ! UUID
  {dbd5adbb-90ec-4c53-b028-b7e49bb1d52e}, ! Version UUID
  1366306231,                             ! Creation Timestamp
  1366306231,                             ! Version Timestamp
  {5d17bdd0-3ddd-436e-a330-d47fd007e76d}; ! Name of Object 1

