
OS:Version,
  {f7fe735b-e648-4f4b-892c-49f015620b54}, ! Handle
  0.9.3;                                  ! Version Identifier

OS:SizingPeriod:DesignDay,
  {ebe403cd-29ba-4bb0-8958-472f98a5a268}, ! Handle
  Killeen Muni  Awos Ann Clg .4% Condns DP=>MDB, ! Name
  28.2,                                   ! Maximum Dry-Bulb Temperature {C}
  11.5,                                   ! Daily Dry-Bulb Temperature Range {deltaC}
  23.4,                                   ! Humidity Indicating Conditions at Maximum Dry-Bulb {BasedOnField A3}
  98264,                                  ! Barometric Pressure {Pa}
  4.4,                                    ! Wind Speed {m/s}
  170,                                    ! Wind Direction {deg}
  0,                                      ! Sky Clearness
  0,                                      ! Rain Indicator
  0,                                      ! Snow Indicator
  21,                                     ! Day of Month
  7,                                      ! Month
  SummerDesignDay,                        ! Day Type
  0,                                      ! Daylight Saving Time Indicator
  Dewpoint,                               ! Humidity Indicating Type
  ,                                       ! Humidity Indicating Day Schedule Name
  DefaultMultipliers,                     ! Dry-Bulb Temperature Range Modifier Type
  ,                                       ! Dry-Bulb Temperature Range Modifier Schedule Name
  ASHRAETau,                              ! Solar Model Indicator
  ,                                       ! Beam Solar Day Schedule Name
  ,                                       ! Diffuse Solar Day Schedule Name
  0.445,                                  ! ASHRAE Taub {dimensionless}
  2.145;                                  ! ASHRAE Taud {dimensionless}

OS:ComponentData,
  {9964ea10-eea4-4d73-9154-e5f9b13c12cd}, ! Handle
  Component Data 1,                       ! Name
  {08f5e84b-741e-40c8-b615-b3cbeb368db8}, ! UUID
  {0f9083bc-dbda-4492-bb86-820676d1dcf4}, ! Version UUID
  1366310768,                             ! Creation Timestamp
  1366310768,                             ! Version Timestamp
  {ebe403cd-29ba-4bb0-8958-472f98a5a268}; ! Name of Object 1

