
OS:Version,
  {badba106-ef56-4a6b-b9f1-fa8150f160cc}, ! Handle
  0.9.3;                                  ! Version Identifier

OS:SizingPeriod:DesignDay,
  {105ead89-45d7-4a1a-ad6c-cf1361698381}, ! Handle
  Houlton Intl Arpt Ann Clg 2% Condns DP=>MDB, ! Name
  22.5,                                   ! Maximum Dry-Bulb Temperature {C}
  12.4,                                   ! Daily Dry-Bulb Temperature Range {deltaC}
  18.9,                                   ! Humidity Indicating Conditions at Maximum Dry-Bulb {BasedOnField A3}
  99536,                                  ! Barometric Pressure {Pa}
  4.7,                                    ! Wind Speed {m/s}
  230,                                    ! Wind Direction {deg}
  0,                                      ! Sky Clearness
  0,                                      ! Rain Indicator
  0,                                      ! Snow Indicator
  21,                                     ! Day of Month
  7,                                      ! Month
  SummerDesignDay,                        ! Day Type
  0,                                      ! Daylight Saving Time Indicator
  Dewpoint,                               ! Humidity Indicating Type
  ,                                       ! Humidity Indicating Day Schedule Name
  DefaultMultipliers,                     ! Dry-Bulb Temperature Range Modifier Type
  ,                                       ! Dry-Bulb Temperature Range Modifier Schedule Name
  ASHRAETau,                              ! Solar Model Indicator
  ,                                       ! Beam Solar Day Schedule Name
  ,                                       ! Diffuse Solar Day Schedule Name
  0.441,                                  ! ASHRAE Taub {dimensionless}
  2.068;                                  ! ASHRAE Taud {dimensionless}

OS:ComponentData,
  {a9abdfe4-664e-4e05-9411-a2246c7e8ffb}, ! Handle
  Component Data 1,                       ! Name
  {696b99fd-3bbd-4732-8e53-7ca5d9c86fb4}, ! UUID
  {3eb99e2d-6e4f-4fca-839e-e55c51978854}, ! Version UUID
  1366307903,                             ! Creation Timestamp
  1366307903,                             ! Version Timestamp
  {105ead89-45d7-4a1a-ad6c-cf1361698381}; ! Name of Object 1

