
OS:Version,
  {263e4d40-d97d-4359-9fd7-b5b25cfea41b}, ! Handle
  0.9.3;                                  ! Version Identifier

OS:SizingPeriod:DesignDay,
  {2dc377e3-e101-40a1-903c-ddddd23b7174}, ! Handle
  LIHUE Ann Hum_n 99.6% Condns DP=>MCDB,  ! Name
  19.1,                                   ! Maximum Dry-Bulb Temperature {C}
  0,                                      ! Daily Dry-Bulb Temperature Range {deltaC}
  10.3,                                   ! Humidity Indicating Conditions at Maximum Dry-Bulb {BasedOnField A3}
  100786,                                 ! Barometric Pressure {Pa}
  3.5,                                    ! Wind Speed {m/s}
  280,                                    ! Wind Direction {deg}
  0,                                      ! Sky Clearness
  0,                                      ! Rain Indicator
  0,                                      ! Snow Indicator
  21,                                     ! Day of Month
  2,                                      ! Month
  WinterDesignDay,                        ! Day Type
  0,                                      ! Daylight Saving Time Indicator
  Dewpoint,                               ! Humidity Indicating Type
  ,                                       ! Humidity Indicating Day Schedule Name
  DefaultMultipliers,                     ! Dry-Bulb Temperature Range Modifier Type
  ,                                       ! Dry-Bulb Temperature Range Modifier Schedule Name
  ASHRAEClearSky;                         ! Solar Model Indicator

OS:ComponentData,
  {d2276376-9aac-4f3d-b6f2-c0fd7d510dc2}, ! Handle
  Component Data 1,                       ! Name
  {cd0074de-a937-45a1-844f-73a6286f6d3d}, ! UUID
  {648f0b06-f49b-4c02-af2a-1c3d4b126eb1}, ! Version UUID
  1366307113,                             ! Creation Timestamp
  1366307113,                             ! Version Timestamp
  {2dc377e3-e101-40a1-903c-ddddd23b7174}; ! Name of Object 1

