
OS:Version,
  {9b0a0fd8-f2c9-4a02-b8be-cb49dcf67e6e}, ! Handle
  0.9.3;                                  ! Version Identifier

OS:SizingPeriod:DesignDay,
  {beb0df97-4c14-46ba-b18e-1c45f6fece49}, ! Handle
  Carlsbad Palomar Ann Clg .4% Condns DP=>MDB, ! Name
  23.4,                                   ! Maximum Dry-Bulb Temperature {C}
  5.3,                                    ! Daily Dry-Bulb Temperature Range {deltaC}
  19.9,                                   ! Humidity Indicating Conditions at Maximum Dry-Bulb {BasedOnField A3}
  100129,                                 ! Barometric Pressure {Pa}
  3.3,                                    ! Wind Speed {m/s}
  250,                                    ! Wind Direction {deg}
  0,                                      ! Sky Clearness
  0,                                      ! Rain Indicator
  0,                                      ! Snow Indicator
  21,                                     ! Day of Month
  8,                                      ! Month
  SummerDesignDay,                        ! Day Type
  0,                                      ! Daylight Saving Time Indicator
  Dewpoint,                               ! Humidity Indicating Type
  ,                                       ! Humidity Indicating Day Schedule Name
  DefaultMultipliers,                     ! Dry-Bulb Temperature Range Modifier Type
  ,                                       ! Dry-Bulb Temperature Range Modifier Schedule Name
  ASHRAETau,                              ! Solar Model Indicator
  ,                                       ! Beam Solar Day Schedule Name
  ,                                       ! Diffuse Solar Day Schedule Name
  0.423,                                  ! ASHRAE Taub {dimensionless}
  2.195;                                  ! ASHRAE Taud {dimensionless}

OS:ComponentData,
  {f2c5200b-bbd5-4155-b4ee-b010c6dd1e15}, ! Handle
  Component Data 1,                       ! Name
  {278ed2e0-946c-4e5a-92f5-0209d28e9af1}, ! UUID
  {cc99dba6-5f89-4fc9-85d8-60dc0533bdc4}, ! Version UUID
  1366306403,                             ! Creation Timestamp
  1366306403,                             ! Version Timestamp
  {beb0df97-4c14-46ba-b18e-1c45f6fece49}; ! Name of Object 1

