
OS:Version,
  {ca0f2aa6-b43d-4918-be80-a80b4e311248}, ! Handle
  0.9.3;                                  ! Version Identifier

OS:SizingPeriod:DesignDay,
  {10bb8514-7575-4ef1-8545-2f5537b7d47a}, ! Handle
  Jackson Hole Ann Clg .4% Condns WB=>MDB, ! Name
  24.8,                                   ! Maximum Dry-Bulb Temperature {C}
  19,                                     ! Daily Dry-Bulb Temperature Range {deltaC}
  14.6,                                   ! Humidity Indicating Conditions at Maximum Dry-Bulb {BasedOnField A3}
  79337,                                  ! Barometric Pressure {Pa}
  5,                                      ! Wind Speed {m/s}
  250,                                    ! Wind Direction {deg}
  0,                                      ! Sky Clearness
  0,                                      ! Rain Indicator
  0,                                      ! Snow Indicator
  21,                                     ! Day of Month
  7,                                      ! Month
  SummerDesignDay,                        ! Day Type
  0,                                      ! Daylight Saving Time Indicator
  Wetbulb,                                ! Humidity Indicating Type
  ,                                       ! Humidity Indicating Day Schedule Name
  DefaultMultipliers,                     ! Dry-Bulb Temperature Range Modifier Type
  ,                                       ! Dry-Bulb Temperature Range Modifier Schedule Name
  ASHRAETau,                              ! Solar Model Indicator
  ,                                       ! Beam Solar Day Schedule Name
  ,                                       ! Diffuse Solar Day Schedule Name
  0.353,                                  ! ASHRAE Taub {dimensionless}
  2.297;                                  ! ASHRAE Taud {dimensionless}

OS:ComponentData,
  {a660f779-08e7-4a79-893b-b70ff9f871e9}, ! Handle
  Component Data 1,                       ! Name
  {6660d686-6cfd-4ff1-bee6-99dd1f374c23}, ! UUID
  {7e3fd912-b243-4c25-b986-5c2567d41de2}, ! Version UUID
  1366311744,                             ! Creation Timestamp
  1366311744,                             ! Version Timestamp
  {10bb8514-7575-4ef1-8545-2f5537b7d47a}; ! Name of Object 1

