
OS:Version,
  {42e3a1d8-fe9c-4cc1-ad9a-037f4f3d4c41}, ! Handle
  0.9.3;                                  ! Version Identifier

OS:SizingPeriod:DesignDay,
  {5d24d751-2a54-487f-99f8-139c4350284b}, ! Handle
  Jackson Hole Ann Clg .4% Condns WB=>MDB, ! Name
  24.8,                                   ! Maximum Dry-Bulb Temperature {C}
  19,                                     ! Daily Dry-Bulb Temperature Range {deltaC}
  14.6,                                   ! Humidity Indicating Conditions at Maximum Dry-Bulb {BasedOnField A3}
  79337,                                  ! Barometric Pressure {Pa}
  5,                                      ! Wind Speed {m/s}
  250,                                    ! Wind Direction {deg}
  0,                                      ! Sky Clearness
  0,                                      ! Rain Indicator
  0,                                      ! Snow Indicator
  21,                                     ! Day of Month
  7,                                      ! Month
  SummerDesignDay,                        ! Day Type
  0,                                      ! Daylight Saving Time Indicator
  Wetbulb,                                ! Humidity Indicating Type
  ,                                       ! Humidity Indicating Day Schedule Name
  DefaultMultipliers,                     ! Dry-Bulb Temperature Range Modifier Type
  ,                                       ! Dry-Bulb Temperature Range Modifier Schedule Name
  ASHRAETau,                              ! Solar Model Indicator
  ,                                       ! Beam Solar Day Schedule Name
  ,                                       ! Diffuse Solar Day Schedule Name
  0.353,                                  ! ASHRAE Taub {dimensionless}
  2.297;                                  ! ASHRAE Taud {dimensionless}

