
OS:Version,
  {0530b87f-2d7d-4fb5-835b-32e360b9b3b0}, ! Handle
  0.9.3;                                  ! Version Identifier

OS:SizingPeriod:DesignDay,
  {cecfc4f3-ed45-422b-8f7a-9d8e02ddc9cb}, ! Handle
  Apalachicola Ann Clg .4% Condns WB=>MDB, ! Name
  31.2,                                   ! Maximum Dry-Bulb Temperature {C}
  7.6,                                    ! Daily Dry-Bulb Temperature Range {deltaC}
  27.1,                                   ! Humidity Indicating Conditions at Maximum Dry-Bulb {BasedOnField A3}
  101253,                                 ! Barometric Pressure {Pa}
  4.2,                                    ! Wind Speed {m/s}
  230,                                    ! Wind Direction {deg}
  0,                                      ! Sky Clearness
  0,                                      ! Rain Indicator
  0,                                      ! Snow Indicator
  21,                                     ! Day of Month
  8,                                      ! Month
  SummerDesignDay,                        ! Day Type
  0,                                      ! Daylight Saving Time Indicator
  Wetbulb,                                ! Humidity Indicating Type
  ,                                       ! Humidity Indicating Day Schedule Name
  DefaultMultipliers,                     ! Dry-Bulb Temperature Range Modifier Type
  ,                                       ! Dry-Bulb Temperature Range Modifier Schedule Name
  ASHRAETau,                              ! Solar Model Indicator
  ,                                       ! Beam Solar Day Schedule Name
  ,                                       ! Diffuse Solar Day Schedule Name
  0.51,                                   ! ASHRAE Taub {dimensionless}
  1.98;                                   ! ASHRAE Taud {dimensionless}

OS:ComponentData,
  {c82f1ce6-a2b5-4353-b20d-f921190654a4}, ! Handle
  Component Data 1,                       ! Name
  {2d108bf3-66b1-4d55-82ef-2620302da8b1}, ! UUID
  {803fe3a3-1b62-482d-94ff-ec774b550acb}, ! Version UUID
  1366306782,                             ! Creation Timestamp
  1366306782,                             ! Version Timestamp
  {cecfc4f3-ed45-422b-8f7a-9d8e02ddc9cb}; ! Name of Object 1

