
OS:Version,
  {8d8a2e43-0e64-4a82-87f6-6a2794271470}, ! Handle
  0.9.3;                                  ! Version Identifier

OS:SizingPeriod:DesignDay,
  {f8bccaa1-91bc-44b6-9a31-c40c938eef05}, ! Handle
  Akron/Canton Ann Clg 2% Condns DB=>MWB, ! Name
  28.5,                                   ! Maximum Dry-Bulb Temperature {C}
  10.4,                                   ! Daily Dry-Bulb Temperature Range {deltaC}
  21.2,                                   ! Humidity Indicating Conditions at Maximum Dry-Bulb {BasedOnField A3}
  96877,                                  ! Barometric Pressure {Pa}
  4.6,                                    ! Wind Speed {m/s}
  230,                                    ! Wind Direction {deg}
  0,                                      ! Sky Clearness
  0,                                      ! Rain Indicator
  0,                                      ! Snow Indicator
  21,                                     ! Day of Month
  7,                                      ! Month
  SummerDesignDay,                        ! Day Type
  0,                                      ! Daylight Saving Time Indicator
  Wetbulb,                                ! Humidity Indicating Type
  ,                                       ! Humidity Indicating Day Schedule Name
  DefaultMultipliers,                     ! Dry-Bulb Temperature Range Modifier Type
  ,                                       ! Dry-Bulb Temperature Range Modifier Schedule Name
  ASHRAETau,                              ! Solar Model Indicator
  ,                                       ! Beam Solar Day Schedule Name
  ,                                       ! Diffuse Solar Day Schedule Name
  0.464,                                  ! ASHRAE Taub {dimensionless}
  1.994;                                  ! ASHRAE Taud {dimensionless}

OS:ComponentData,
  {f7bdb192-e438-4d55-ac9f-219fde8b1ef0}, ! Handle
  Component Data 1,                       ! Name
  {12b2e3df-4ac0-4647-9681-2c82303cd548}, ! UUID
  {688bbc76-7111-46a2-afd7-f3a7aabcaf56}, ! Version UUID
  1366309766,                             ! Creation Timestamp
  1366309766,                             ! Version Timestamp
  {f8bccaa1-91bc-44b6-9a31-c40c938eef05}; ! Name of Object 1

