
OS:Version,
  {b20fc905-8168-4914-bbdd-8a2e1a5e0e02}, ! Handle
  0.9.3;                                  ! Version Identifier

OS:SizingPeriod:DesignDay,
  {f1f46c67-381b-41a3-8117-7061e664143d}, ! Handle
  Anniston Metropolitan Ap Ann Htg 99.6% Condns DB, ! Name
  -6.6,                                   ! Maximum Dry-Bulb Temperature {C}
  0,                                      ! Daily Dry-Bulb Temperature Range {deltaC}
  -6.6,                                   ! Humidity Indicating Conditions at Maximum Dry-Bulb {BasedOnField A3}
  99110,                                  ! Barometric Pressure {Pa}
  2.3,                                    ! Wind Speed {m/s}
  250,                                    ! Wind Direction {deg}
  0,                                      ! Sky Clearness
  0,                                      ! Rain Indicator
  0,                                      ! Snow Indicator
  21,                                     ! Day of Month
  1,                                      ! Month
  WinterDesignDay,                        ! Day Type
  0,                                      ! Daylight Saving Time Indicator
  Wetbulb,                                ! Humidity Indicating Type
  ,                                       ! Humidity Indicating Day Schedule Name
  DefaultMultipliers,                     ! Dry-Bulb Temperature Range Modifier Type
  ,                                       ! Dry-Bulb Temperature Range Modifier Schedule Name
  ASHRAEClearSky;                         ! Solar Model Indicator

OS:ComponentData,
  {bb608be4-5394-4c4c-98e1-1f9130553aa3}, ! Handle
  Component Data 1,                       ! Name
  {a0f76753-df7a-4784-9561-7eb67c1264e4}, ! UUID
  {63e39196-c968-428a-a26c-2e2f96ebb1d4}, ! Version UUID
  1366305633,                             ! Creation Timestamp
  1366305633,                             ! Version Timestamp
  {f1f46c67-381b-41a3-8117-7061e664143d}; ! Name of Object 1

