
OS:Version,
  {0c97711e-6b0a-4054-be8f-52543e7acbb5}, ! Handle
  0.9.3;                                  ! Version Identifier

OS:SizingPeriod:DesignDay,
  {cbdf57ca-36c6-45e5-8136-c79d27382a6d}, ! Handle
  Homer Arpt Ann Clg 2% Condns DP=>MDB,   ! Name
  14.4,                                   ! Maximum Dry-Bulb Temperature {C}
  6.4,                                    ! Daily Dry-Bulb Temperature Range {deltaC}
  11.5,                                   ! Humidity Indicating Conditions at Maximum Dry-Bulb {BasedOnField A3}
  101001,                                 ! Barometric Pressure {Pa}
  4.4,                                    ! Wind Speed {m/s}
  250,                                    ! Wind Direction {deg}
  0,                                      ! Sky Clearness
  0,                                      ! Rain Indicator
  0,                                      ! Snow Indicator
  21,                                     ! Day of Month
  7,                                      ! Month
  SummerDesignDay,                        ! Day Type
  0,                                      ! Daylight Saving Time Indicator
  Dewpoint,                               ! Humidity Indicating Type
  ,                                       ! Humidity Indicating Day Schedule Name
  DefaultMultipliers,                     ! Dry-Bulb Temperature Range Modifier Type
  ,                                       ! Dry-Bulb Temperature Range Modifier Schedule Name
  ASHRAETau,                              ! Solar Model Indicator
  ,                                       ! Beam Solar Day Schedule Name
  ,                                       ! Diffuse Solar Day Schedule Name
  0.376,                                  ! ASHRAE Taub {dimensionless}
  2.236;                                  ! ASHRAE Taud {dimensionless}

OS:ComponentData,
  {0607344d-7478-4ed2-9ea6-f9111a9da414}, ! Handle
  Component Data 1,                       ! Name
  {e44fc0e3-4769-479e-9264-07f7c5613afb}, ! UUID
  {742f8baf-e860-4921-9754-21dcb7dd9c52}, ! Version UUID
  1366305311,                             ! Creation Timestamp
  1366305311,                             ! Version Timestamp
  {cbdf57ca-36c6-45e5-8136-c79d27382a6d}; ! Name of Object 1

