
OS:Version,
  {53f400be-d962-4659-a668-2b805eeef14c}, ! Handle
  0.9.3;                                  ! Version Identifier

OS:SizingPeriod:DesignDay,
  {9c11f64f-8f96-45b3-82a5-3952ec51da09}, ! Handle
  Harrison Marion Rgn Ann Clg 1% Condns Enth=>MDB, ! Name
  27.9,                                   ! Maximum Dry-Bulb Temperature {C}
  10.1,                                   ! Daily Dry-Bulb Temperature Range {deltaC}
  71600,                                  ! Humidity Indicating Conditions at Maximum Dry-Bulb {BasedOnField A3}
  96842,                                  ! Barometric Pressure {Pa}
  3.3,                                    ! Wind Speed {m/s}
  220,                                    ! Wind Direction {deg}
  0,                                      ! Sky Clearness
  0,                                      ! Rain Indicator
  0,                                      ! Snow Indicator
  21,                                     ! Day of Month
  7,                                      ! Month
  SummerDesignDay,                        ! Day Type
  0,                                      ! Daylight Saving Time Indicator
  Enthalpy,                               ! Humidity Indicating Type
  ,                                       ! Humidity Indicating Day Schedule Name
  DefaultMultipliers,                     ! Dry-Bulb Temperature Range Modifier Type
  ,                                       ! Dry-Bulb Temperature Range Modifier Schedule Name
  ASHRAETau,                              ! Solar Model Indicator
  ,                                       ! Beam Solar Day Schedule Name
  ,                                       ! Diffuse Solar Day Schedule Name
  0.499,                                  ! ASHRAE Taub {dimensionless}
  1.888;                                  ! ASHRAE Taud {dimensionless}

