
OS:Version,
  {b35c895b-57c8-49d5-b871-7f1b718f004e}, ! Handle
  0.9.3;                                  ! Version Identifier

OS:SizingPeriod:DesignDay,
  {34e2bd4f-b9cd-4af6-b77c-0b90a740413c}, ! Handle
  Beale Afb Ann Hum_n 99% Condns DP=>MCDB, ! Name
  7.4,                                    ! Maximum Dry-Bulb Temperature {C}
  0,                                      ! Daily Dry-Bulb Temperature Range {deltaC}
  -4.1,                                   ! Humidity Indicating Conditions at Maximum Dry-Bulb {BasedOnField A3}
  100869,                                 ! Barometric Pressure {Pa}
  1.2,                                    ! Wind Speed {m/s}
  350,                                    ! Wind Direction {deg}
  0,                                      ! Sky Clearness
  0,                                      ! Rain Indicator
  0,                                      ! Snow Indicator
  21,                                     ! Day of Month
  12,                                     ! Month
  WinterDesignDay,                        ! Day Type
  0,                                      ! Daylight Saving Time Indicator
  Dewpoint,                               ! Humidity Indicating Type
  ,                                       ! Humidity Indicating Day Schedule Name
  DefaultMultipliers,                     ! Dry-Bulb Temperature Range Modifier Type
  ,                                       ! Dry-Bulb Temperature Range Modifier Schedule Name
  ASHRAEClearSky;                         ! Solar Model Indicator

OS:ComponentData,
  {4fff4105-8bfc-40f9-9a06-38cb8c5e7cef}, ! Handle
  Component Data 1,                       ! Name
  {8e9724cb-951a-402e-b736-9691a722d198}, ! UUID
  {4baa7627-c14a-4e94-a3f2-0591c76c77a3}, ! Version UUID
  1366306379,                             ! Creation Timestamp
  1366306379,                             ! Version Timestamp
  {34e2bd4f-b9cd-4af6-b77c-0b90a740413c}; ! Name of Object 1

