
OS:Version,
  {63aefd7a-a990-4eec-84da-d9c79738a6a7}, ! Handle
  0.9.3;                                  ! Version Identifier

OS:SizingPeriod:DesignDay,
  {823773e2-7aee-4279-ada1-32aeb745fe5a}, ! Handle
  Lynchburg Regional Arpt Ann Clg 2% Condns DP=>MDB, ! Name
  25.9,                                   ! Maximum Dry-Bulb Temperature {C}
  10.7,                                   ! Daily Dry-Bulb Temperature Range {deltaC}
  21.9,                                   ! Humidity Indicating Conditions at Maximum Dry-Bulb {BasedOnField A3}
  97936,                                  ! Barometric Pressure {Pa}
  3.3,                                    ! Wind Speed {m/s}
  240,                                    ! Wind Direction {deg}
  0,                                      ! Sky Clearness
  0,                                      ! Rain Indicator
  0,                                      ! Snow Indicator
  21,                                     ! Day of Month
  7,                                      ! Month
  SummerDesignDay,                        ! Day Type
  0,                                      ! Daylight Saving Time Indicator
  Dewpoint,                               ! Humidity Indicating Type
  ,                                       ! Humidity Indicating Day Schedule Name
  DefaultMultipliers,                     ! Dry-Bulb Temperature Range Modifier Type
  ,                                       ! Dry-Bulb Temperature Range Modifier Schedule Name
  ASHRAETau,                              ! Solar Model Indicator
  ,                                       ! Beam Solar Day Schedule Name
  ,                                       ! Diffuse Solar Day Schedule Name
  0.531,                                  ! ASHRAE Taub {dimensionless}
  1.818;                                  ! ASHRAE Taud {dimensionless}

OS:ComponentData,
  {598535c3-329f-43e8-af4c-f85f6183edf0}, ! Handle
  Component Data 1,                       ! Name
  {3f0c0480-9555-4e15-8d41-0289a84bcd9e}, ! UUID
  {b856a624-172b-493d-9eab-7e19625d8971}, ! Version UUID
  1366311090,                             ! Creation Timestamp
  1366311090,                             ! Version Timestamp
  {823773e2-7aee-4279-ada1-32aeb745fe5a}; ! Name of Object 1

