
OS:Version,
  {e55a28d8-cdc3-4dfd-b6c9-bffe34e52e9e}, ! Handle
  0.9.3;                                  ! Version Identifier

OS:SizingPeriod:DesignDay,
  {94a0b7ef-1a77-4574-8299-9d16427a2ec4}, ! Handle
  Fayetteville Drake Field Ann Clg .4% Condns WB=>MDB, ! Name
  32.1,                                   ! Maximum Dry-Bulb Temperature {C}
  11.8,                                   ! Daily Dry-Bulb Temperature Range {deltaC}
  25.6,                                   ! Humidity Indicating Conditions at Maximum Dry-Bulb {BasedOnField A3}
  96831,                                  ! Barometric Pressure {Pa}
  4.3,                                    ! Wind Speed {m/s}
  190,                                    ! Wind Direction {deg}
  0,                                      ! Sky Clearness
  0,                                      ! Rain Indicator
  0,                                      ! Snow Indicator
  21,                                     ! Day of Month
  7,                                      ! Month
  SummerDesignDay,                        ! Day Type
  0,                                      ! Daylight Saving Time Indicator
  Wetbulb,                                ! Humidity Indicating Type
  ,                                       ! Humidity Indicating Day Schedule Name
  DefaultMultipliers,                     ! Dry-Bulb Temperature Range Modifier Type
  ,                                       ! Dry-Bulb Temperature Range Modifier Schedule Name
  ASHRAETau,                              ! Solar Model Indicator
  ,                                       ! Beam Solar Day Schedule Name
  ,                                       ! Diffuse Solar Day Schedule Name
  0.462,                                  ! ASHRAE Taub {dimensionless}
  2.054;                                  ! ASHRAE Taud {dimensionless}

OS:ComponentData,
  {3f863f28-8ea4-46e3-901c-1cda23d8945f}, ! Handle
  Component Data 1,                       ! Name
  {81e28a60-168a-4ddb-ac2b-4cf1b95dd35b}, ! UUID
  {6d94333f-6be0-407e-b80c-dbd54ba6f956}, ! Version UUID
  1366306200,                             ! Creation Timestamp
  1366306200,                             ! Version Timestamp
  {94a0b7ef-1a77-4574-8299-9d16427a2ec4}; ! Name of Object 1

