
OS:Version,
  {2f629c7a-5286-43e7-a3ab-b6f1c8acdd11}, ! Handle
  0.9.3;                                  ! Version Identifier

OS:SizingPeriod:DesignDay,
  {2103f18a-9ef7-47c8-8afd-c82932d9adca}, ! Handle
  Batesville  Awos Ann Clg 2% Condns WB=>MDB, ! Name
  31.5,                                   ! Maximum Dry-Bulb Temperature {C}
  11,                                     ! Daily Dry-Bulb Temperature Range {deltaC}
  24.9,                                   ! Humidity Indicating Conditions at Maximum Dry-Bulb {BasedOnField A3}
  99643,                                  ! Barometric Pressure {Pa}
  3.4,                                    ! Wind Speed {m/s}
  190,                                    ! Wind Direction {deg}
  0,                                      ! Sky Clearness
  0,                                      ! Rain Indicator
  0,                                      ! Snow Indicator
  21,                                     ! Day of Month
  7,                                      ! Month
  SummerDesignDay,                        ! Day Type
  0,                                      ! Daylight Saving Time Indicator
  Wetbulb,                                ! Humidity Indicating Type
  ,                                       ! Humidity Indicating Day Schedule Name
  DefaultMultipliers,                     ! Dry-Bulb Temperature Range Modifier Type
  ,                                       ! Dry-Bulb Temperature Range Modifier Schedule Name
  ASHRAETau,                              ! Solar Model Indicator
  ,                                       ! Beam Solar Day Schedule Name
  ,                                       ! Diffuse Solar Day Schedule Name
  0.493,                                  ! ASHRAE Taub {dimensionless}
  1.953;                                  ! ASHRAE Taud {dimensionless}

OS:ComponentData,
  {02002e0f-9030-4984-9769-f879fc481f87}, ! Handle
  Component Data 1,                       ! Name
  {2d5ea5c7-1b1e-4f99-945d-40124f4d6586}, ! UUID
  {c6fac17b-cfe3-45e9-a4e0-db85a4ecdee0}, ! Version UUID
  1366306068,                             ! Creation Timestamp
  1366306068,                             ! Version Timestamp
  {2103f18a-9ef7-47c8-8afd-c82932d9adca}; ! Name of Object 1

