
OS:Version,
  {26289c42-5789-4064-ad17-1f51c4d2b229}, ! Handle
  0.9.3;                                  ! Version Identifier

OS:SizingPeriod:DesignDay,
  {ab1c34e6-7dc6-4a3a-8a4f-66eb38e233d2}, ! Handle
  Key West Intl Arpt Ann Clg .4% Condns Enth=>MDB, ! Name
  30.9,                                   ! Maximum Dry-Bulb Temperature {C}
  5.1,                                    ! Daily Dry-Bulb Temperature Range {deltaC}
  85800,                                  ! Humidity Indicating Conditions at Maximum Dry-Bulb {BasedOnField A3}
  101313,                                 ! Barometric Pressure {Pa}
  4,                                      ! Wind Speed {m/s}
  150,                                    ! Wind Direction {deg}
  0,                                      ! Sky Clearness
  0,                                      ! Rain Indicator
  0,                                      ! Snow Indicator
  21,                                     ! Day of Month
  8,                                      ! Month
  SummerDesignDay,                        ! Day Type
  0,                                      ! Daylight Saving Time Indicator
  Enthalpy,                               ! Humidity Indicating Type
  ,                                       ! Humidity Indicating Day Schedule Name
  DefaultMultipliers,                     ! Dry-Bulb Temperature Range Modifier Type
  ,                                       ! Dry-Bulb Temperature Range Modifier Schedule Name
  ASHRAETau,                              ! Solar Model Indicator
  ,                                       ! Beam Solar Day Schedule Name
  ,                                       ! Diffuse Solar Day Schedule Name
  0.461,                                  ! ASHRAE Taub {dimensionless}
  2.194;                                  ! ASHRAE Taud {dimensionless}

