
OS:Version,
  {6b37afbe-c5da-4132-bb34-cdb68b8c4a94}, ! Handle
  0.9.3;                                  ! Version Identifier

OS:SizingPeriod:DesignDay,
  {66ab99f8-66d8-4c57-8b75-d16cab9c4e8f}, ! Handle
  Eau Claire County Ap Ann Clg .4% Condns Enth=>MDB, ! Name
  30.2,                                   ! Maximum Dry-Bulb Temperature {C}
  11.5,                                   ! Daily Dry-Bulb Temperature Range {deltaC}
  75300,                                  ! Humidity Indicating Conditions at Maximum Dry-Bulb {BasedOnField A3}
  98112,                                  ! Barometric Pressure {Pa}
  5.2,                                    ! Wind Speed {m/s}
  190,                                    ! Wind Direction {deg}
  0,                                      ! Sky Clearness
  0,                                      ! Rain Indicator
  0,                                      ! Snow Indicator
  21,                                     ! Day of Month
  7,                                      ! Month
  SummerDesignDay,                        ! Day Type
  0,                                      ! Daylight Saving Time Indicator
  Enthalpy,                               ! Humidity Indicating Type
  ,                                       ! Humidity Indicating Day Schedule Name
  DefaultMultipliers,                     ! Dry-Bulb Temperature Range Modifier Type
  ,                                       ! Dry-Bulb Temperature Range Modifier Schedule Name
  ASHRAETau,                              ! Solar Model Indicator
  ,                                       ! Beam Solar Day Schedule Name
  ,                                       ! Diffuse Solar Day Schedule Name
  0.412,                                  ! ASHRAE Taub {dimensionless}
  2.189;                                  ! ASHRAE Taud {dimensionless}

OS:ComponentData,
  {a3a4ac73-2532-49e0-8e12-b3a48ca00ccb}, ! Handle
  Component Data 1,                       ! Name
  {31084e28-83ea-48a9-aae3-772fb6241ab1}, ! UUID
  {33244753-9b4b-44d9-8b3c-9971d4cd02dd}, ! Version UUID
  1366311475,                             ! Creation Timestamp
  1366311475,                             ! Version Timestamp
  {66ab99f8-66d8-4c57-8b75-d16cab9c4e8f}; ! Name of Object 1

