
OS:Version,
  {2099a120-2a1c-4508-adc3-9c9d047a44aa}, ! Handle
  0.9.3;                                  ! Version Identifier

OS:SizingPeriod:DesignDay,
  {54873418-2578-4925-aa58-c04315862807}, ! Handle
  Lander Hunt Field Ann Htg 99% Condns DB, ! Name
  -19.4,                                  ! Maximum Dry-Bulb Temperature {C}
  0,                                      ! Daily Dry-Bulb Temperature Range {deltaC}
  -19.4,                                  ! Humidity Indicating Conditions at Maximum Dry-Bulb {BasedOnField A3}
  82562,                                  ! Barometric Pressure {Pa}
  1.1,                                    ! Wind Speed {m/s}
  140,                                    ! Wind Direction {deg}
  0,                                      ! Sky Clearness
  0,                                      ! Rain Indicator
  0,                                      ! Snow Indicator
  21,                                     ! Day of Month
  12,                                     ! Month
  WinterDesignDay,                        ! Day Type
  0,                                      ! Daylight Saving Time Indicator
  Wetbulb,                                ! Humidity Indicating Type
  ,                                       ! Humidity Indicating Day Schedule Name
  DefaultMultipliers,                     ! Dry-Bulb Temperature Range Modifier Type
  ,                                       ! Dry-Bulb Temperature Range Modifier Schedule Name
  ASHRAEClearSky;                         ! Solar Model Indicator

OS:ComponentData,
  {bb202384-09bb-4f43-b6ae-54278e002f6f}, ! Handle
  Component Data 1,                       ! Name
  {50a1bb0d-16c0-4d57-be4a-76daf25aadf6}, ! UUID
  {db2d1458-fe49-4410-ae0b-270db78ef63d}, ! Version UUID
  1366311748,                             ! Creation Timestamp
  1366311748,                             ! Version Timestamp
  {54873418-2578-4925-aa58-c04315862807}; ! Name of Object 1

