
OS:Version,
  {8d609484-819f-45be-a17a-86a554bfafba}, ! Handle
  0.9.3;                                  ! Version Identifier

OS:SizingPeriod:DesignDay,
  {3d3811d5-3402-448e-b38b-339d47f547bf}, ! Handle
  Big Delta Allen Aaf Ann Clg 2% Condns Enth=>MDB, ! Name
  20.4,                                   ! Maximum Dry-Bulb Temperature {C}
  9.5,                                    ! Daily Dry-Bulb Temperature Range {deltaC}
  39900,                                  ! Humidity Indicating Conditions at Maximum Dry-Bulb {BasedOnField A3}
  96773,                                  ! Barometric Pressure {Pa}
  3.3,                                    ! Wind Speed {m/s}
  310,                                    ! Wind Direction {deg}
  0,                                      ! Sky Clearness
  0,                                      ! Rain Indicator
  0,                                      ! Snow Indicator
  21,                                     ! Day of Month
  7,                                      ! Month
  SummerDesignDay,                        ! Day Type
  0,                                      ! Daylight Saving Time Indicator
  Enthalpy,                               ! Humidity Indicating Type
  ,                                       ! Humidity Indicating Day Schedule Name
  DefaultMultipliers,                     ! Dry-Bulb Temperature Range Modifier Type
  ,                                       ! Dry-Bulb Temperature Range Modifier Schedule Name
  ASHRAETau,                              ! Solar Model Indicator
  ,                                       ! Beam Solar Day Schedule Name
  ,                                       ! Diffuse Solar Day Schedule Name
  0.398,                                  ! ASHRAE Taub {dimensionless}
  2.083;                                  ! ASHRAE Taud {dimensionless}

OS:ComponentData,
  {69680bca-ac96-47ff-9e21-06d3c1aae1cf}, ! Handle
  Component Data 1,                       ! Name
  {8fac4427-9e32-47e2-a780-2cea30ea8c71}, ! UUID
  {cc4b06d1-ac11-4594-916a-2e30f3ad1ccc}, ! Version UUID
  1366304781,                             ! Creation Timestamp
  1366304781,                             ! Version Timestamp
  {3d3811d5-3402-448e-b38b-339d47f547bf}; ! Name of Object 1

