
OS:Version,
  {411f8d07-d30a-4ed1-8c41-1306bbf78b19}, ! Handle
  0.9.3;                                  ! Version Identifier

OS:SizingPeriod:DesignDay,
  {abf1678a-f411-46f8-8f5f-dd3bf5d4ed3d}, ! Handle
  Gunnison Co   Awos Ann Clg 1% Condns Enth=>MDB, ! Name
  21.4,                                   ! Maximum Dry-Bulb Temperature {C}
  17.9,                                   ! Daily Dry-Bulb Temperature Range {deltaC}
  44300,                                  ! Humidity Indicating Conditions at Maximum Dry-Bulb {BasedOnField A3}
  76206,                                  ! Barometric Pressure {Pa}
  4.4,                                    ! Wind Speed {m/s}
  250,                                    ! Wind Direction {deg}
  0,                                      ! Sky Clearness
  0,                                      ! Rain Indicator
  0,                                      ! Snow Indicator
  21,                                     ! Day of Month
  7,                                      ! Month
  SummerDesignDay,                        ! Day Type
  0,                                      ! Daylight Saving Time Indicator
  Enthalpy,                               ! Humidity Indicating Type
  ,                                       ! Humidity Indicating Day Schedule Name
  DefaultMultipliers,                     ! Dry-Bulb Temperature Range Modifier Type
  ,                                       ! Dry-Bulb Temperature Range Modifier Schedule Name
  ASHRAETau,                              ! Solar Model Indicator
  ,                                       ! Beam Solar Day Schedule Name
  ,                                       ! Diffuse Solar Day Schedule Name
  0.384,                                  ! ASHRAE Taub {dimensionless}
  2.179;                                  ! ASHRAE Taud {dimensionless}

OS:ComponentData,
  {ed9d0401-f030-40e6-ac9f-c661c2e2ee1f}, ! Handle
  Component Data 1,                       ! Name
  {5441a7ff-2253-4498-8347-4d8b39008faa}, ! UUID
  {b5d90b38-4a13-4357-b631-588044192759}, ! Version UUID
  1366306710,                             ! Creation Timestamp
  1366306710,                             ! Version Timestamp
  {abf1678a-f411-46f8-8f5f-dd3bf5d4ed3d}; ! Name of Object 1

