
OS:Version,
  {7e997f36-085a-4e52-b719-22748256b4be}, ! Handle
  0.9.3;                                  ! Version Identifier

OS:SizingPeriod:DesignDay,
  {4ab4ae58-6c4e-4f50-b822-82c7a8c22dda}, ! Handle
  ELKO Ann Htg 99.6% Condns DB,           ! Name
  -20,                                    ! Maximum Dry-Bulb Temperature {C}
  0,                                      ! Daily Dry-Bulb Temperature Range {deltaC}
  -20,                                    ! Humidity Indicating Conditions at Maximum Dry-Bulb {BasedOnField A3}
  84069,                                  ! Barometric Pressure {Pa}
  1.6,                                    ! Wind Speed {m/s}
  90,                                     ! Wind Direction {deg}
  0,                                      ! Sky Clearness
  0,                                      ! Rain Indicator
  0,                                      ! Snow Indicator
  21,                                     ! Day of Month
  1,                                      ! Month
  WinterDesignDay,                        ! Day Type
  0,                                      ! Daylight Saving Time Indicator
  Wetbulb,                                ! Humidity Indicating Type
  ,                                       ! Humidity Indicating Day Schedule Name
  DefaultMultipliers,                     ! Dry-Bulb Temperature Range Modifier Type
  ,                                       ! Dry-Bulb Temperature Range Modifier Schedule Name
  ASHRAEClearSky;                         ! Solar Model Indicator

OS:ComponentData,
  {0abf89e1-887a-4724-b23f-891e441752c0}, ! Handle
  Component Data 1,                       ! Name
  {e603719f-6476-4840-bc6c-6b9ff826524f}, ! UUID
  {73d5d05d-cd0b-41a0-97d1-35ed1953bb10}, ! Version UUID
  1366309456,                             ! Creation Timestamp
  1366309456,                             ! Version Timestamp
  {4ab4ae58-6c4e-4f50-b822-82c7a8c22dda}; ! Name of Object 1

