
OS:Version,
  {47bc6a0b-7575-4990-973f-d849e46c8c36}, ! Handle
  0.9.3;                                  ! Version Identifier

OS:SizingPeriod:DesignDay,
  {51398ab6-bfe6-4dd9-a096-c5813cb8616b}, ! Handle
  Dayton/Wright-Paterson Ann Hum_n 99.6% Condns DP=>MCDB, ! Name
  -16.2,                                  ! Maximum Dry-Bulb Temperature {C}
  0,                                      ! Daily Dry-Bulb Temperature Range {deltaC}
  -20.3,                                  ! Humidity Indicating Conditions at Maximum Dry-Bulb {BasedOnField A3}
  98346,                                  ! Barometric Pressure {Pa}
  3.3,                                    ! Wind Speed {m/s}
  260,                                    ! Wind Direction {deg}
  0,                                      ! Sky Clearness
  0,                                      ! Rain Indicator
  0,                                      ! Snow Indicator
  21,                                     ! Day of Month
  1,                                      ! Month
  WinterDesignDay,                        ! Day Type
  0,                                      ! Daylight Saving Time Indicator
  Dewpoint,                               ! Humidity Indicating Type
  ,                                       ! Humidity Indicating Day Schedule Name
  DefaultMultipliers,                     ! Dry-Bulb Temperature Range Modifier Type
  ,                                       ! Dry-Bulb Temperature Range Modifier Schedule Name
  ASHRAEClearSky;                         ! Solar Model Indicator

OS:ComponentData,
  {361b6d8b-090a-43dd-b131-a973b7520ebe}, ! Handle
  Component Data 1,                       ! Name
  {87a82280-e203-4974-9b5c-f772b3f114c8}, ! UUID
  {d31617cf-4c1c-4329-91a2-b3ddb4a251d3}, ! Version UUID
  1366309807,                             ! Creation Timestamp
  1366309807,                             ! Version Timestamp
  {51398ab6-bfe6-4dd9-a096-c5813cb8616b}; ! Name of Object 1

