
OS:Version,
  {d35e6c96-af98-4921-9cd0-0e0460881564}, ! Handle
  0.9.3;                                  ! Version Identifier

OS:SizingPeriod:DesignDay,
  {61a8f1bc-d93f-4b25-bed1-c89eb163191b}, ! Handle
  Adak NAS Ann Hum_n 99.6% Condns DP=>MCDB, ! Name
  -4.6,                                   ! Maximum Dry-Bulb Temperature {C}
  0,                                      ! Daily Dry-Bulb Temperature Range {deltaC}
  -12.6,                                  ! Humidity Indicating Conditions at Maximum Dry-Bulb {BasedOnField A3}
  101265,                                 ! Barometric Pressure {Pa}
  2.1,                                    ! Wind Speed {m/s}
  200,                                    ! Wind Direction {deg}
  0,                                      ! Sky Clearness
  0,                                      ! Rain Indicator
  0,                                      ! Snow Indicator
  21,                                     ! Day of Month
  1,                                      ! Month
  WinterDesignDay,                        ! Day Type
  0,                                      ! Daylight Saving Time Indicator
  Dewpoint,                               ! Humidity Indicating Type
  ,                                       ! Humidity Indicating Day Schedule Name
  DefaultMultipliers,                     ! Dry-Bulb Temperature Range Modifier Type
  ,                                       ! Dry-Bulb Temperature Range Modifier Schedule Name
  ASHRAEClearSky;                         ! Solar Model Indicator

OS:ComponentData,
  {1e041687-da17-4521-a8f7-6a97982aed25}, ! Handle
  Component Data 1,                       ! Name
  {e91d0fee-692b-4620-9701-131b990c4f74}, ! UUID
  {6aa5b0ec-c636-46e3-b962-a7ba6fd44368}, ! Version UUID
  1364004393,                             ! Creation Timestamp
  1364004393,                             ! Version Timestamp
  {61a8f1bc-d93f-4b25-bed1-c89eb163191b}; ! Name of Object 1

