
OS:Version,
  {ddbafce4-deb7-406b-a3bf-77e73b9ab2e5}, ! Handle
  0.9.3;                                  ! Version Identifier

OS:SizingPeriod:DesignDay,
  {34f5df79-749c-4e46-85a2-170f1cb701fe}, ! Handle
  AUGUSTA Ann Clg .4% Condns WB=>MDB,     ! Name
  32.8,                                   ! Maximum Dry-Bulb Temperature {C}
  11.7,                                   ! Daily Dry-Bulb Temperature Range {deltaC}
  26.3,                                   ! Humidity Indicating Conditions at Maximum Dry-Bulb {BasedOnField A3}
  100786,                                 ! Barometric Pressure {Pa}
  3.8,                                    ! Wind Speed {m/s}
  240,                                    ! Wind Direction {deg}
  0,                                      ! Sky Clearness
  0,                                      ! Rain Indicator
  0,                                      ! Snow Indicator
  21,                                     ! Day of Month
  7,                                      ! Month
  SummerDesignDay,                        ! Day Type
  0,                                      ! Daylight Saving Time Indicator
  Wetbulb,                                ! Humidity Indicating Type
  ,                                       ! Humidity Indicating Day Schedule Name
  DefaultMultipliers,                     ! Dry-Bulb Temperature Range Modifier Type
  ,                                       ! Dry-Bulb Temperature Range Modifier Schedule Name
  ASHRAETau,                              ! Solar Model Indicator
  ,                                       ! Beam Solar Day Schedule Name
  ,                                       ! Diffuse Solar Day Schedule Name
  0.559,                                  ! ASHRAE Taub {dimensionless}
  1.788;                                  ! ASHRAE Taud {dimensionless}

OS:ComponentData,
  {3f5b610a-ada5-4082-bbb2-a35e5f352e6a}, ! Handle
  Component Data 1,                       ! Name
  {4b9eacb6-7df0-4727-b74b-b4fe6f9f7fe5}, ! UUID
  {33f10a1f-56a3-4052-a954-3d2b9ebb12f8}, ! Version UUID
  1366306993,                             ! Creation Timestamp
  1366306993,                             ! Version Timestamp
  {34f5df79-749c-4e46-85a2-170f1cb701fe}; ! Name of Object 1

