
OS:Version,
  {4cedeb3d-a5a5-488c-ad6b-47e15263388a}, ! Handle
  0.9.3;                                  ! Version Identifier

OS:SizingPeriod:DesignDay,
  {c040dd4e-e75c-4701-8674-fc9e69ce519f}, ! Handle
  Lufkin Ann Clg .4% Condns WB=>MDB,      ! Name
  32.4,                                   ! Maximum Dry-Bulb Temperature {C}
  11.4,                                   ! Daily Dry-Bulb Temperature Range {deltaC}
  26.6,                                   ! Humidity Indicating Conditions at Maximum Dry-Bulb {BasedOnField A3}
  100272,                                 ! Barometric Pressure {Pa}
  3.4,                                    ! Wind Speed {m/s}
  200,                                    ! Wind Direction {deg}
  0,                                      ! Sky Clearness
  0,                                      ! Rain Indicator
  0,                                      ! Snow Indicator
  21,                                     ! Day of Month
  7,                                      ! Month
  SummerDesignDay,                        ! Day Type
  0,                                      ! Daylight Saving Time Indicator
  Wetbulb,                                ! Humidity Indicating Type
  ,                                       ! Humidity Indicating Day Schedule Name
  DefaultMultipliers,                     ! Dry-Bulb Temperature Range Modifier Type
  ,                                       ! Dry-Bulb Temperature Range Modifier Schedule Name
  ASHRAETau,                              ! Solar Model Indicator
  ,                                       ! Beam Solar Day Schedule Name
  ,                                       ! Diffuse Solar Day Schedule Name
  0.491,                                  ! ASHRAE Taub {dimensionless}
  2.003;                                  ! ASHRAE Taud {dimensionless}

OS:ComponentData,
  {e223501e-0036-4d61-9953-284f9391ab74}, ! Handle
  Component Data 1,                       ! Name
  {58a416c7-ab2b-435d-bd5c-3dab652be2ad}, ! UUID
  {9b0428a7-e145-46e6-8c08-7a522fc827fc}, ! Version UUID
  1366310803,                             ! Creation Timestamp
  1366310803,                             ! Version Timestamp
  {c040dd4e-e75c-4701-8674-fc9e69ce519f}; ! Name of Object 1

