
OS:Version,
  {7392122a-d280-4d6b-8742-a8b5cc26283a}, ! Handle
  0.9.3;                                  ! Version Identifier

OS:SizingPeriod:DesignDay,
  {fb4316c5-0009-453f-bab0-11904587c12b}, ! Handle
  Boone Muni Ann Htg 99% Condns DB,       ! Name
  -17.6,                                  ! Maximum Dry-Bulb Temperature {C}
  0,                                      ! Daily Dry-Bulb Temperature Range {deltaC}
  -17.6,                                  ! Humidity Indicating Conditions at Maximum Dry-Bulb {BasedOnField A3}
  97144,                                  ! Barometric Pressure {Pa}
  4.2,                                    ! Wind Speed {m/s}
  340,                                    ! Wind Direction {deg}
  0,                                      ! Sky Clearness
  0,                                      ! Rain Indicator
  0,                                      ! Snow Indicator
  21,                                     ! Day of Month
  1,                                      ! Month
  WinterDesignDay,                        ! Day Type
  0,                                      ! Daylight Saving Time Indicator
  Wetbulb,                                ! Humidity Indicating Type
  ,                                       ! Humidity Indicating Day Schedule Name
  DefaultMultipliers,                     ! Dry-Bulb Temperature Range Modifier Type
  ,                                       ! Dry-Bulb Temperature Range Modifier Schedule Name
  ASHRAEClearSky;                         ! Solar Model Indicator

OS:ComponentData,
  {a51f5bee-f429-44de-ab73-221321268536}, ! Handle
  Component Data 1,                       ! Name
  {3c7088cd-e739-412d-be23-0b34b3993ef6}, ! UUID
  {e54b7ae0-a426-4d29-8029-51a8d59852c6}, ! Version UUID
  1366307136,                             ! Creation Timestamp
  1366307136,                             ! Version Timestamp
  {fb4316c5-0009-453f-bab0-11904587c12b}; ! Name of Object 1

