
OS:Version,
  {3fa6f543-7358-4a18-8fe0-9602b1ea7850}, ! Handle
  0.9.3;                                  ! Version Identifier

OS:SizingPeriod:DesignDay,
  {a8d51ef0-ea6e-490c-bd71-f8f034d93d5c}, ! Handle
  CHARLESTON Ann Clg .4% Condns WB=>MDB,  ! Name
  30.1,                                   ! Maximum Dry-Bulb Temperature {C}
  10.7,                                   ! Daily Dry-Bulb Temperature Range {deltaC}
  24.9,                                   ! Humidity Indicating Conditions at Maximum Dry-Bulb {BasedOnField A3}
  97889,                                  ! Barometric Pressure {Pa}
  2.9,                                    ! Wind Speed {m/s}
  240,                                    ! Wind Direction {deg}
  0,                                      ! Sky Clearness
  0,                                      ! Rain Indicator
  0,                                      ! Snow Indicator
  21,                                     ! Day of Month
  7,                                      ! Month
  SummerDesignDay,                        ! Day Type
  0,                                      ! Daylight Saving Time Indicator
  Wetbulb,                                ! Humidity Indicating Type
  ,                                       ! Humidity Indicating Day Schedule Name
  DefaultMultipliers,                     ! Dry-Bulb Temperature Range Modifier Type
  ,                                       ! Dry-Bulb Temperature Range Modifier Schedule Name
  ASHRAETau,                              ! Solar Model Indicator
  ,                                       ! Beam Solar Day Schedule Name
  ,                                       ! Diffuse Solar Day Schedule Name
  0.513,                                  ! ASHRAE Taub {dimensionless}
  1.859;                                  ! ASHRAE Taud {dimensionless}

OS:ComponentData,
  {0c9e5f3f-58d1-4ec7-961d-6137c4a66a8a}, ! Handle
  Component Data 1,                       ! Name
  {a9fe221f-e8fb-41a4-a70e-c3d31a437b5b}, ! UUID
  {2a2f0263-5d08-47f1-b042-fd9a7327b924}, ! Version UUID
  1366311631,                             ! Creation Timestamp
  1366311631,                             ! Version Timestamp
  {a8d51ef0-ea6e-490c-bd71-f8f034d93d5c}; ! Name of Object 1

