
OS:Version,
  {c85818a7-320e-4c73-a23f-dc14bb469e0e}, ! Handle
  0.9.3;                                  ! Version Identifier

OS:SizingPeriod:DesignDay,
  {fed361a3-2111-4fbf-9a30-02fe888a9123}, ! Handle
  Belleville Scott Afb Ann Clg 1% Condns Enth=>MDB, ! Name
  31.6,                                   ! Maximum Dry-Bulb Temperature {C}
  11,                                     ! Daily Dry-Bulb Temperature Range {deltaC}
  81100,                                  ! Humidity Indicating Conditions at Maximum Dry-Bulb {BasedOnField A3}
  99714,                                  ! Barometric Pressure {Pa}
  3.4,                                    ! Wind Speed {m/s}
  190,                                    ! Wind Direction {deg}
  0,                                      ! Sky Clearness
  0,                                      ! Rain Indicator
  0,                                      ! Snow Indicator
  21,                                     ! Day of Month
  7,                                      ! Month
  SummerDesignDay,                        ! Day Type
  0,                                      ! Daylight Saving Time Indicator
  Enthalpy,                               ! Humidity Indicating Type
  ,                                       ! Humidity Indicating Day Schedule Name
  DefaultMultipliers,                     ! Dry-Bulb Temperature Range Modifier Type
  ,                                       ! Dry-Bulb Temperature Range Modifier Schedule Name
  ASHRAETau,                              ! Solar Model Indicator
  ,                                       ! Beam Solar Day Schedule Name
  ,                                       ! Diffuse Solar Day Schedule Name
  0.48,                                   ! ASHRAE Taub {dimensionless}
  1.976;                                  ! ASHRAE Taud {dimensionless}

OS:ComponentData,
  {9abdd102-eacc-4552-a354-e0eca3fafbbb}, ! Handle
  Component Data 1,                       ! Name
  {1317437f-c5ce-410d-860f-ac98d6c611ab}, ! UUID
  {7f022953-ba55-4616-a554-2efbf2e2cc63}, ! Version UUID
  1366307324,                             ! Creation Timestamp
  1366307324,                             ! Version Timestamp
  {fed361a3-2111-4fbf-9a30-02fe888a9123}; ! Name of Object 1

