
OS:Version,
  {6f43ba39-81a1-4d6e-9917-0683cb103b60}, ! Handle
  0.9.3;                                  ! Version Identifier

OS:SizingPeriod:DesignDay,
  {6cd9229c-4ae6-4b18-9499-c51e5b960372}, ! Handle
  Columbus/Int'l Airport Ann Hum_n 99% Condns DP=>MCDB, ! Name
  -11.9,                                  ! Maximum Dry-Bulb Temperature {C}
  0,                                      ! Daily Dry-Bulb Temperature Range {deltaC}
  -17.8,                                  ! Humidity Indicating Conditions at Maximum Dry-Bulb {BasedOnField A3}
  98369,                                  ! Barometric Pressure {Pa}
  3.6,                                    ! Wind Speed {m/s}
  260,                                    ! Wind Direction {deg}
  0,                                      ! Sky Clearness
  0,                                      ! Rain Indicator
  0,                                      ! Snow Indicator
  21,                                     ! Day of Month
  1,                                      ! Month
  WinterDesignDay,                        ! Day Type
  0,                                      ! Daylight Saving Time Indicator
  Dewpoint,                               ! Humidity Indicating Type
  ,                                       ! Humidity Indicating Day Schedule Name
  DefaultMultipliers,                     ! Dry-Bulb Temperature Range Modifier Type
  ,                                       ! Dry-Bulb Temperature Range Modifier Schedule Name
  ASHRAEClearSky;                         ! Solar Model Indicator

OS:ComponentData,
  {060e1791-fba8-44ee-acf4-7135837da932}, ! Handle
  Component Data 1,                       ! Name
  {a699d3a2-9bbd-4265-8ed5-ada192ef0150}, ! UUID
  {4d7fa91c-3eec-4f0c-928d-5612b00225b2}, ! Version UUID
  1366309789,                             ! Creation Timestamp
  1366309789,                             ! Version Timestamp
  {6cd9229c-4ae6-4b18-9499-c51e5b960372}; ! Name of Object 1

