
OS:Version,
  {6f66a7ea-3aba-43da-b28b-3f26f1544819}, ! Handle
  0.9.3;                                  ! Version Identifier

OS:SizingPeriod:DesignDay,
  {714e0d25-f9f8-4720-a32f-315e19d2289a}, ! Handle
  Astoria Regional Airport Ann Clg .4% Condns DB=>MWB, ! Name
  24.8,                                   ! Maximum Dry-Bulb Temperature {C}
  7.9,                                    ! Daily Dry-Bulb Temperature Range {deltaC}
  17.5,                                   ! Humidity Indicating Conditions at Maximum Dry-Bulb {BasedOnField A3}
  101289,                                 ! Barometric Pressure {Pa}
  5.1,                                    ! Wind Speed {m/s}
  310,                                    ! Wind Direction {deg}
  0,                                      ! Sky Clearness
  0,                                      ! Rain Indicator
  0,                                      ! Snow Indicator
  21,                                     ! Day of Month
  8,                                      ! Month
  SummerDesignDay,                        ! Day Type
  0,                                      ! Daylight Saving Time Indicator
  Wetbulb,                                ! Humidity Indicating Type
  ,                                       ! Humidity Indicating Day Schedule Name
  DefaultMultipliers,                     ! Dry-Bulb Temperature Range Modifier Type
  ,                                       ! Dry-Bulb Temperature Range Modifier Schedule Name
  ASHRAETau,                              ! Solar Model Indicator
  ,                                       ! Beam Solar Day Schedule Name
  ,                                       ! Diffuse Solar Day Schedule Name
  0.355,                                  ! ASHRAE Taub {dimensionless}
  2.571;                                  ! ASHRAE Taud {dimensionless}

OS:ComponentData,
  {c629f790-7ccb-42a0-9de1-41b3b3c6db82}, ! Handle
  Component Data 1,                       ! Name
  {d6980e4b-2436-428b-9c18-5e90c7e40e6f}, ! UUID
  {f6799bd8-a230-41cb-a691-3763b3e9119e}, ! Version UUID
  1366309977,                             ! Creation Timestamp
  1366309977,                             ! Version Timestamp
  {714e0d25-f9f8-4720-a32f-315e19d2289a}; ! Name of Object 1

