
OS:Version,
  {de4e6e2f-7f2b-4664-86f8-d6cb99041a94}, ! Handle
  0.9.3;                                  ! Version Identifier

OS:SizingPeriod:DesignDay,
  {22a52ea3-ab30-4c9b-9c12-cfbb8d3f4605}, ! Handle
  Jefferson City Mem Ann Clg 1% Condns Enth=>MDB, ! Name
  31.5,                                   ! Maximum Dry-Bulb Temperature {C}
  10.5,                                   ! Daily Dry-Bulb Temperature Range {deltaC}
  79200,                                  ! Humidity Indicating Conditions at Maximum Dry-Bulb {BasedOnField A3}
  99335,                                  ! Barometric Pressure {Pa}
  3.7,                                    ! Wind Speed {m/s}
  220,                                    ! Wind Direction {deg}
  0,                                      ! Sky Clearness
  0,                                      ! Rain Indicator
  0,                                      ! Snow Indicator
  21,                                     ! Day of Month
  7,                                      ! Month
  SummerDesignDay,                        ! Day Type
  0,                                      ! Daylight Saving Time Indicator
  Enthalpy,                               ! Humidity Indicating Type
  ,                                       ! Humidity Indicating Day Schedule Name
  DefaultMultipliers,                     ! Dry-Bulb Temperature Range Modifier Type
  ,                                       ! Dry-Bulb Temperature Range Modifier Schedule Name
  ASHRAETau,                              ! Solar Model Indicator
  ,                                       ! Beam Solar Day Schedule Name
  ,                                       ! Diffuse Solar Day Schedule Name
  0.459,                                  ! ASHRAE Taub {dimensionless}
  2.071;                                  ! ASHRAE Taud {dimensionless}

OS:ComponentData,
  {85e8b1e5-b1e9-46d0-8658-71a6e6256745}, ! Handle
  Component Data 1,                       ! Name
  {8a9bf40c-2b36-4b41-9177-c4287238495c}, ! UUID
  {8ed358dc-964b-436d-b89f-113cb99d11a0}, ! Version UUID
  1366308504,                             ! Creation Timestamp
  1366308504,                             ! Version Timestamp
  {22a52ea3-ab30-4c9b-9c12-cfbb8d3f4605}; ! Name of Object 1

