
OS:Version,
  {54a88711-fe9d-4b97-bba4-97b1deb71ba7}, ! Handle
  0.9.3;                                  ! Version Identifier

OS:SizingPeriod:DesignDay,
  {ba834b9e-9dff-4bf3-a559-0cd82e8a3754}, ! Handle
  Bentonville  Awos Ann Clg 1% Condns DP=>MDB, ! Name
  28.5,                                   ! Maximum Dry-Bulb Temperature {C}
  10.9,                                   ! Daily Dry-Bulb Temperature Range {deltaC}
  22.7,                                   ! Humidity Indicating Conditions at Maximum Dry-Bulb {BasedOnField A3}
  96669,                                  ! Barometric Pressure {Pa}
  3.1,                                    ! Wind Speed {m/s}
  220,                                    ! Wind Direction {deg}
  0,                                      ! Sky Clearness
  0,                                      ! Rain Indicator
  0,                                      ! Snow Indicator
  21,                                     ! Day of Month
  7,                                      ! Month
  SummerDesignDay,                        ! Day Type
  0,                                      ! Daylight Saving Time Indicator
  Dewpoint,                               ! Humidity Indicating Type
  ,                                       ! Humidity Indicating Day Schedule Name
  DefaultMultipliers,                     ! Dry-Bulb Temperature Range Modifier Type
  ,                                       ! Dry-Bulb Temperature Range Modifier Schedule Name
  ASHRAETau,                              ! Solar Model Indicator
  ,                                       ! Beam Solar Day Schedule Name
  ,                                       ! Diffuse Solar Day Schedule Name
  0.453,                                  ! ASHRAE Taub {dimensionless}
  2.084;                                  ! ASHRAE Taud {dimensionless}

OS:ComponentData,
  {9ea46b36-f8b8-41ee-bb35-f49659cd02ca}, ! Handle
  Component Data 1,                       ! Name
  {a4cb4e84-e0cf-4df8-87a2-a35cc57a0858}, ! UUID
  {ba11e361-0af8-4d00-91ed-5a4e1869ef72}, ! Version UUID
  1366306195,                             ! Creation Timestamp
  1366306195,                             ! Version Timestamp
  {ba834b9e-9dff-4bf3-a559-0cd82e8a3754}; ! Name of Object 1

