
OS:Version,
  {04bfc756-ee46-405b-9e30-af9839321636}, ! Handle
  0.9.3;                                  ! Version Identifier

OS:SizingPeriod:DesignDay,
  {e31c5fef-184d-41f9-aa1b-62b00b61883b}, ! Handle
  CUT_BANK Ann Htg 99.6% Condns DB,       ! Name
  -28.4,                                  ! Maximum Dry-Bulb Temperature {C}
  0,                                      ! Daily Dry-Bulb Temperature Range {deltaC}
  -28.4,                                  ! Humidity Indicating Conditions at Maximum Dry-Bulb {BasedOnField A3}
  88037,                                  ! Barometric Pressure {Pa}
  2.7,                                    ! Wind Speed {m/s}
  350,                                    ! Wind Direction {deg}
  0,                                      ! Sky Clearness
  0,                                      ! Rain Indicator
  0,                                      ! Snow Indicator
  21,                                     ! Day of Month
  1,                                      ! Month
  WinterDesignDay,                        ! Day Type
  0,                                      ! Daylight Saving Time Indicator
  Wetbulb,                                ! Humidity Indicating Type
  ,                                       ! Humidity Indicating Day Schedule Name
  DefaultMultipliers,                     ! Dry-Bulb Temperature Range Modifier Type
  ,                                       ! Dry-Bulb Temperature Range Modifier Schedule Name
  ASHRAEClearSky;                         ! Solar Model Indicator

OS:ComponentData,
  {96173db5-3aae-4b60-ac1a-e63873e214a8}, ! Handle
  Component Data 1,                       ! Name
  {78ffb7bc-6141-4422-b9e7-030197635e23}, ! UUID
  {399977c4-59e1-4aef-9bd2-b74d891a4226}, ! Version UUID
  1366308733,                             ! Creation Timestamp
  1366308733,                             ! Version Timestamp
  {e31c5fef-184d-41f9-aa1b-62b00b61883b}; ! Name of Object 1

