
OS:Version,
  {7d1ec667-66f1-4ba3-a48a-e0bd8865a987}, ! Handle
  0.9.3;                                  ! Version Identifier

OS:SizingPeriod:DesignDay,
  {12072cef-d948-4d22-8781-0e0bf9a47fc4}, ! Handle
  Fort Knox Godman Aaf Ann Hum_n 99.6% Condns DP=>MCDB, ! Name
  -11.8,                                  ! Maximum Dry-Bulb Temperature {C}
  0,                                      ! Daily Dry-Bulb Temperature Range {deltaC}
  -19.1,                                  ! Humidity Indicating Conditions at Maximum Dry-Bulb {BasedOnField A3}
  98487,                                  ! Barometric Pressure {Pa}
  2.6,                                    ! Wind Speed {m/s}
  280,                                    ! Wind Direction {deg}
  0,                                      ! Sky Clearness
  0,                                      ! Rain Indicator
  0,                                      ! Snow Indicator
  21,                                     ! Day of Month
  1,                                      ! Month
  WinterDesignDay,                        ! Day Type
  0,                                      ! Daylight Saving Time Indicator
  Dewpoint,                               ! Humidity Indicating Type
  ,                                       ! Humidity Indicating Day Schedule Name
  DefaultMultipliers,                     ! Dry-Bulb Temperature Range Modifier Type
  ,                                       ! Dry-Bulb Temperature Range Modifier Schedule Name
  ASHRAEClearSky;                         ! Solar Model Indicator

OS:ComponentData,
  {9ca4b548-152f-4b4f-8bc8-1e5fde42bcad}, ! Handle
  Component Data 1,                       ! Name
  {2c1cff24-ef84-4d82-862d-38656e76705e}, ! UUID
  {7e0184c5-fe7d-48af-9a89-c879e4c8cf9b}, ! Version UUID
  1366307633,                             ! Creation Timestamp
  1366307633,                             ! Version Timestamp
  {12072cef-d948-4d22-8781-0e0bf9a47fc4}; ! Name of Object 1

