
OS:Version,
  {5bde05ec-4fb9-4956-a3d1-fb2920348c53}, ! Handle
  0.9.3;                                  ! Version Identifier

OS:SizingPeriod:DesignDay,
  {8ade8113-9c1e-4455-890f-75cd62901038}, ! Handle
  Fort Benning Lawson Ann Htg Wind 99.6% Condns WS=>MCDB, ! Name
  7.9,                                    ! Maximum Dry-Bulb Temperature {C}
  0,                                      ! Daily Dry-Bulb Temperature Range {deltaC}
  7.9,                                    ! Humidity Indicating Conditions at Maximum Dry-Bulb {BasedOnField A3}
  100272,                                 ! Barometric Pressure {Pa}
  9,                                      ! Wind Speed {m/s}
  300,                                    ! Wind Direction {deg}
  0,                                      ! Sky Clearness
  0,                                      ! Rain Indicator
  0,                                      ! Snow Indicator
  21,                                     ! Day of Month
  1,                                      ! Month
  WinterDesignDay,                        ! Day Type
  0,                                      ! Daylight Saving Time Indicator
  Wetbulb,                                ! Humidity Indicating Type
  ,                                       ! Humidity Indicating Day Schedule Name
  DefaultMultipliers,                     ! Dry-Bulb Temperature Range Modifier Type
  ,                                       ! Dry-Bulb Temperature Range Modifier Schedule Name
  ASHRAEClearSky;                         ! Solar Model Indicator

OS:ComponentData,
  {5fa75de3-3931-44b8-8da4-f0bb0571f7fd}, ! Handle
  Component Data 1,                       ! Name
  {9b5e2944-dc13-41d8-9621-bbde47ae21e0}, ! UUID
  {c77863cc-a838-45e5-9c6c-78f4aa3f6f29}, ! Version UUID
  1366307009,                             ! Creation Timestamp
  1366307009,                             ! Version Timestamp
  {8ade8113-9c1e-4455-890f-75cd62901038}; ! Name of Object 1

