
OS:Version,
  {6bfd6d03-a75f-44a4-8a05-2802a2d87e9c}, ! Handle
  0.9.3;                                  ! Version Identifier

OS:SizingPeriod:DesignDay,
  {254a401d-1e4c-4e29-a281-2788fa2147ae}, ! Handle
  Augusta Bush Field Ann Clg .4% Condns Enth=>MDB, ! Name
  32.8,                                   ! Maximum Dry-Bulb Temperature {C}
  11.7,                                   ! Daily Dry-Bulb Temperature Range {deltaC}
  81700,                                  ! Humidity Indicating Conditions at Maximum Dry-Bulb {BasedOnField A3}
  100845,                                 ! Barometric Pressure {Pa}
  3.8,                                    ! Wind Speed {m/s}
  240,                                    ! Wind Direction {deg}
  0,                                      ! Sky Clearness
  0,                                      ! Rain Indicator
  0,                                      ! Snow Indicator
  21,                                     ! Day of Month
  7,                                      ! Month
  SummerDesignDay,                        ! Day Type
  0,                                      ! Daylight Saving Time Indicator
  Enthalpy,                               ! Humidity Indicating Type
  ,                                       ! Humidity Indicating Day Schedule Name
  DefaultMultipliers,                     ! Dry-Bulb Temperature Range Modifier Type
  ,                                       ! Dry-Bulb Temperature Range Modifier Schedule Name
  ASHRAETau,                              ! Solar Model Indicator
  ,                                       ! Beam Solar Day Schedule Name
  ,                                       ! Diffuse Solar Day Schedule Name
  0.559,                                  ! ASHRAE Taub {dimensionless}
  1.788;                                  ! ASHRAE Taud {dimensionless}

OS:ComponentData,
  {4852bb88-8cbf-4e72-8f86-ce2957b8697f}, ! Handle
  Component Data 1,                       ! Name
  {9489f8e8-f36d-48ab-8b50-dfe51ba50ab1}, ! UUID
  {acd8b6c2-4d0e-448a-bdd0-2a2a7525cbfa}, ! Version UUID
  1366306989,                             ! Creation Timestamp
  1366306989,                             ! Version Timestamp
  {254a401d-1e4c-4e29-a281-2788fa2147ae}; ! Name of Object 1

