
OS:Version,
  {d0b8f283-7292-4824-ba69-a6ad69f8f8aa}, ! Handle
  0.9.3;                                  ! Version Identifier

OS:SizingPeriod:DesignDay,
  {26908710-dfe7-4b0b-973f-6fd10907cc8c}, ! Handle
  Galveston Scholes Ann Clg .4% Condns DP=>MDB, ! Name
  28.9,                                   ! Maximum Dry-Bulb Temperature {C}
  5.7,                                    ! Daily Dry-Bulb Temperature Range {deltaC}
  27.1,                                   ! Humidity Indicating Conditions at Maximum Dry-Bulb {BasedOnField A3}
  101133,                                 ! Barometric Pressure {Pa}
  5.2,                                    ! Wind Speed {m/s}
  180,                                    ! Wind Direction {deg}
  0,                                      ! Sky Clearness
  0,                                      ! Rain Indicator
  0,                                      ! Snow Indicator
  21,                                     ! Day of Month
  8,                                      ! Month
  SummerDesignDay,                        ! Day Type
  0,                                      ! Daylight Saving Time Indicator
  Dewpoint,                               ! Humidity Indicating Type
  ,                                       ! Humidity Indicating Day Schedule Name
  DefaultMultipliers,                     ! Dry-Bulb Temperature Range Modifier Type
  ,                                       ! Dry-Bulb Temperature Range Modifier Schedule Name
  ASHRAETau,                              ! Solar Model Indicator
  ,                                       ! Beam Solar Day Schedule Name
  ,                                       ! Diffuse Solar Day Schedule Name
  0.503,                                  ! ASHRAE Taub {dimensionless}
  1.974;                                  ! ASHRAE Taud {dimensionless}

