
OS:Version,
  {3a38022c-1f2a-4743-b3ab-d9064d660a91}, ! Handle
  0.9.3;                                  ! Version Identifier

OS:SizingPeriod:DesignDay,
  {67acb3f1-e2ca-41ce-a53c-bb2f8b6772b1}, ! Handle
  Las Vegas Mccarran Intl Ap Ann Clg 2% Condns Enth=>MDB, ! Name
  34.1,                                   ! Maximum Dry-Bulb Temperature {C}
  13,                                     ! Daily Dry-Bulb Temperature Range {deltaC}
  63800,                                  ! Humidity Indicating Conditions at Maximum Dry-Bulb {BasedOnField A3}
  93779,                                  ! Barometric Pressure {Pa}
  4.9,                                    ! Wind Speed {m/s}
  230,                                    ! Wind Direction {deg}
  0,                                      ! Sky Clearness
  0,                                      ! Rain Indicator
  0,                                      ! Snow Indicator
  21,                                     ! Day of Month
  7,                                      ! Month
  SummerDesignDay,                        ! Day Type
  0,                                      ! Daylight Saving Time Indicator
  Enthalpy,                               ! Humidity Indicating Type
  ,                                       ! Humidity Indicating Day Schedule Name
  DefaultMultipliers,                     ! Dry-Bulb Temperature Range Modifier Type
  ,                                       ! Dry-Bulb Temperature Range Modifier Schedule Name
  ASHRAETau,                              ! Solar Model Indicator
  ,                                       ! Beam Solar Day Schedule Name
  ,                                       ! Diffuse Solar Day Schedule Name
  0.55,                                   ! ASHRAE Taub {dimensionless}
  1.674;                                  ! ASHRAE Taud {dimensionless}

OS:ComponentData,
  {13998211-1547-4b8a-b341-90c8213cee42}, ! Handle
  Component Data 1,                       ! Name
  {30eda781-d548-4a4d-b02f-cc28c45bbd76}, ! UUID
  {889f65f3-30b7-4dcb-ae26-477abd54be2a}, ! Version UUID
  1366309503,                             ! Creation Timestamp
  1366309503,                             ! Version Timestamp
  {67acb3f1-e2ca-41ce-a53c-bb2f8b6772b1}; ! Name of Object 1

