
OS:Version,
  {f64c8f33-0701-4391-bb82-c3cd78f8184d}, ! Handle
  0.9.3;                                  ! Version Identifier

OS:SizingPeriod:DesignDay,
  {45de78ef-84ce-4be6-823f-66baeca63a8b}, ! Handle
  Fallon Naas Ann Hum_n 99% Condns DP=>MCDB, ! Name
  -4.6,                                   ! Maximum Dry-Bulb Temperature {C}
  0,                                      ! Daily Dry-Bulb Temperature Range {deltaC}
  -14.9,                                  ! Humidity Indicating Conditions at Maximum Dry-Bulb {BasedOnField A3}
  87726,                                  ! Barometric Pressure {Pa}
  0.9,                                    ! Wind Speed {m/s}
  160,                                    ! Wind Direction {deg}
  0,                                      ! Sky Clearness
  0,                                      ! Rain Indicator
  0,                                      ! Snow Indicator
  21,                                     ! Day of Month
  12,                                     ! Month
  WinterDesignDay,                        ! Day Type
  0,                                      ! Daylight Saving Time Indicator
  Dewpoint,                               ! Humidity Indicating Type
  ,                                       ! Humidity Indicating Day Schedule Name
  DefaultMultipliers,                     ! Dry-Bulb Temperature Range Modifier Type
  ,                                       ! Dry-Bulb Temperature Range Modifier Schedule Name
  ASHRAEClearSky;                         ! Solar Model Indicator

OS:ComponentData,
  {4bbe69a2-28f8-4c20-a872-c608318e1cbd}, ! Handle
  Component Data 1,                       ! Name
  {eafe3a91-bfbd-4625-a064-6f29791e6628}, ! UUID
  {35992198-d771-4bed-a595-708a2658fc7a}, ! Version UUID
  1366309492,                             ! Creation Timestamp
  1366309492,                             ! Version Timestamp
  {45de78ef-84ce-4be6-823f-66baeca63a8b}; ! Name of Object 1

