
OS:Version,
  {784024b6-5673-4d9f-83e0-3b0a82736b84}, ! Handle
  0.9.3;                                  ! Version Identifier

OS:SizingPeriod:DesignDay,
  {a7a05eaf-5b22-41b8-aebb-069ddc42a68d}, ! Handle
  Davison Aaf Ann Clg 1% Condns DP=>MDB,  ! Name
  28.8,                                   ! Maximum Dry-Bulb Temperature {C}
  11.7,                                   ! Daily Dry-Bulb Temperature Range {deltaC}
  23.8,                                   ! Humidity Indicating Conditions at Maximum Dry-Bulb {BasedOnField A3}
  101001,                                 ! Barometric Pressure {Pa}
  2.9,                                    ! Wind Speed {m/s}
  160,                                    ! Wind Direction {deg}
  0,                                      ! Sky Clearness
  0,                                      ! Rain Indicator
  0,                                      ! Snow Indicator
  21,                                     ! Day of Month
  7,                                      ! Month
  SummerDesignDay,                        ! Day Type
  0,                                      ! Daylight Saving Time Indicator
  Dewpoint,                               ! Humidity Indicating Type
  ,                                       ! Humidity Indicating Day Schedule Name
  DefaultMultipliers,                     ! Dry-Bulb Temperature Range Modifier Type
  ,                                       ! Dry-Bulb Temperature Range Modifier Schedule Name
  ASHRAETau,                              ! Solar Model Indicator
  ,                                       ! Beam Solar Day Schedule Name
  ,                                       ! Diffuse Solar Day Schedule Name
  0.566,                                  ! ASHRAE Taub {dimensionless}
  1.742;                                  ! ASHRAE Taud {dimensionless}

OS:ComponentData,
  {7d7e5aa9-8f33-4494-bb24-1dba9825d96f}, ! Handle
  Component Data 1,                       ! Name
  {42782ab3-4130-42a4-8a11-e14d950fb0a8}, ! UUID
  {45110dfe-d6db-4e29-9e6b-8bce57c3e75e}, ! Version UUID
  1366311040,                             ! Creation Timestamp
  1366311040,                             ! Version Timestamp
  {a7a05eaf-5b22-41b8-aebb-069ddc42a68d}; ! Name of Object 1

