
OS:Version,
  {07a44b27-0baf-4d78-b406-340085d121b5}, ! Handle
  0.9.3;                                  ! Version Identifier

OS:SizingPeriod:DesignDay,
  {b4a19926-9f23-443d-b050-6e1b7774d448}, ! Handle
  Cincinnati Municipal Ap Lunki Ann Hum_n 99% Condns DP=>MCDB, ! Name
  -9.8,                                   ! Maximum Dry-Bulb Temperature {C}
  0,                                      ! Daily Dry-Bulb Temperature Range {deltaC}
  -16.5,                                  ! Humidity Indicating Conditions at Maximum Dry-Bulb {BasedOnField A3}
  99548,                                  ! Barometric Pressure {Pa}
  3.7,                                    ! Wind Speed {m/s}
  240,                                    ! Wind Direction {deg}
  0,                                      ! Sky Clearness
  0,                                      ! Rain Indicator
  0,                                      ! Snow Indicator
  21,                                     ! Day of Month
  1,                                      ! Month
  WinterDesignDay,                        ! Day Type
  0,                                      ! Daylight Saving Time Indicator
  Dewpoint,                               ! Humidity Indicating Type
  ,                                       ! Humidity Indicating Day Schedule Name
  DefaultMultipliers,                     ! Dry-Bulb Temperature Range Modifier Type
  ,                                       ! Dry-Bulb Temperature Range Modifier Schedule Name
  ASHRAEClearSky;                         ! Solar Model Indicator

OS:ComponentData,
  {8c510e3f-d5c7-4d8f-80ca-a2754580bdbe}, ! Handle
  Component Data 1,                       ! Name
  {10ea6d2e-6a71-4f0a-8201-0764992e4b55}, ! UUID
  {c84fd9ab-e22f-43d4-8d4d-6b2fa42dd569}, ! Version UUID
  1366309774,                             ! Creation Timestamp
  1366309774,                             ! Version Timestamp
  {b4a19926-9f23-443d-b050-6e1b7774d448}; ! Name of Object 1

