
OS:Version,
  {5fdcfd03-d938-405b-abb6-6541200dfd27}, ! Handle
  0.9.3;                                  ! Version Identifier

OS:SizingPeriod:DesignDay,
  {ae2c1a73-de12-4dc6-8d3f-8d890f05f61c}, ! Handle
  BETHEL Ann Clg .4% Condns DB=>MWB,      ! Name
  22.4,                                   ! Maximum Dry-Bulb Temperature {C}
  7.7,                                    ! Daily Dry-Bulb Temperature Range {deltaC}
  14.9,                                   ! Humidity Indicating Conditions at Maximum Dry-Bulb {BasedOnField A3}
  100774,                                 ! Barometric Pressure {Pa}
  4.9,                                    ! Wind Speed {m/s}
  10,                                     ! Wind Direction {deg}
  0,                                      ! Sky Clearness
  0,                                      ! Rain Indicator
  0,                                      ! Snow Indicator
  21,                                     ! Day of Month
  7,                                      ! Month
  SummerDesignDay,                        ! Day Type
  0,                                      ! Daylight Saving Time Indicator
  Wetbulb,                                ! Humidity Indicating Type
  ,                                       ! Humidity Indicating Day Schedule Name
  DefaultMultipliers,                     ! Dry-Bulb Temperature Range Modifier Type
  ,                                       ! Dry-Bulb Temperature Range Modifier Schedule Name
  ASHRAETau,                              ! Solar Model Indicator
  ,                                       ! Beam Solar Day Schedule Name
  ,                                       ! Diffuse Solar Day Schedule Name
  0.383,                                  ! ASHRAE Taub {dimensionless}
  2.185;                                  ! ASHRAE Taud {dimensionless}

OS:ComponentData,
  {55c815a9-d8bf-41ad-9cd1-50fc6d8f312d}, ! Handle
  Component Data 1,                       ! Name
  {bed1df00-9c17-4834-bdc6-eeeb0ec115ba}, ! UUID
  {35761bf8-3d68-4625-b99a-bf5fb4dbb962}, ! Version UUID
  1366304747,                             ! Creation Timestamp
  1366304747,                             ! Version Timestamp
  {ae2c1a73-de12-4dc6-8d3f-8d890f05f61c}; ! Name of Object 1

