
OS:Version,
  {3f8fa561-2f2f-4556-ab1a-3673c5a05fc9}, ! Handle
  0.9.3;                                  ! Version Identifier

OS:SizingPeriod:DesignDay,
  {56cc2d02-97e5-4db8-b53f-419f3c65e91c}, ! Handle
  HOUSTON Ann Clg 1% Condns DB=>MWB,      ! Name
  35,                                     ! Maximum Dry-Bulb Temperature {C}
  10.1,                                   ! Daily Dry-Bulb Temperature Range {deltaC}
  24.8,                                   ! Humidity Indicating Conditions at Maximum Dry-Bulb {BasedOnField A3}
  100929,                                 ! Barometric Pressure {Pa}
  3.5,                                    ! Wind Speed {m/s}
  170,                                    ! Wind Direction {deg}
  0,                                      ! Sky Clearness
  0,                                      ! Rain Indicator
  0,                                      ! Snow Indicator
  21,                                     ! Day of Month
  7,                                      ! Month
  SummerDesignDay,                        ! Day Type
  0,                                      ! Daylight Saving Time Indicator
  Wetbulb,                                ! Humidity Indicating Type
  ,                                       ! Humidity Indicating Day Schedule Name
  DefaultMultipliers,                     ! Dry-Bulb Temperature Range Modifier Type
  ,                                       ! Dry-Bulb Temperature Range Modifier Schedule Name
  ASHRAETau,                              ! Solar Model Indicator
  ,                                       ! Beam Solar Day Schedule Name
  ,                                       ! Diffuse Solar Day Schedule Name
  0.499,                                  ! ASHRAE Taub {dimensionless}
  1.97;                                   ! ASHRAE Taud {dimensionless}

OS:ComponentData,
  {c638a144-fad6-4833-acbc-8095062d5e14}, ! Handle
  Component Data 1,                       ! Name
  {607c7f60-9dad-49be-a14e-59cb7b15a073}, ! UUID
  {17f0435b-6444-4df3-9b33-195832a036ae}, ! Version UUID
  1366310755,                             ! Creation Timestamp
  1366310755,                             ! Version Timestamp
  {56cc2d02-97e5-4db8-b53f-419f3c65e91c}; ! Name of Object 1

