
OS:Version,
  {b46474b3-76d6-42ff-ad94-4239e901d5a7}, ! Handle
  0.9.3;                                  ! Version Identifier

OS:SizingPeriod:DesignDay,
  {f8f8557d-c6fb-4b6b-9b46-db670e9378e4}, ! Handle
  Lynchburg Regional Arpt Ann Clg 2% Condns DB=>MWB, ! Name
  30.7,                                   ! Maximum Dry-Bulb Temperature {C}
  10.7,                                   ! Daily Dry-Bulb Temperature Range {deltaC}
  22.4,                                   ! Humidity Indicating Conditions at Maximum Dry-Bulb {BasedOnField A3}
  97936,                                  ! Barometric Pressure {Pa}
  3.3,                                    ! Wind Speed {m/s}
  240,                                    ! Wind Direction {deg}
  0,                                      ! Sky Clearness
  0,                                      ! Rain Indicator
  0,                                      ! Snow Indicator
  21,                                     ! Day of Month
  7,                                      ! Month
  SummerDesignDay,                        ! Day Type
  0,                                      ! Daylight Saving Time Indicator
  Wetbulb,                                ! Humidity Indicating Type
  ,                                       ! Humidity Indicating Day Schedule Name
  DefaultMultipliers,                     ! Dry-Bulb Temperature Range Modifier Type
  ,                                       ! Dry-Bulb Temperature Range Modifier Schedule Name
  ASHRAETau,                              ! Solar Model Indicator
  ,                                       ! Beam Solar Day Schedule Name
  ,                                       ! Diffuse Solar Day Schedule Name
  0.531,                                  ! ASHRAE Taub {dimensionless}
  1.818;                                  ! ASHRAE Taud {dimensionless}

OS:ComponentData,
  {d52a7b83-f155-4f21-9600-6683ec916d6f}, ! Handle
  Component Data 1,                       ! Name
  {49948922-4d3e-4932-b378-6afca2437036}, ! UUID
  {248f7b2d-f73b-491b-b7d8-5d2318c8b27e}, ! Version UUID
  1366311089,                             ! Creation Timestamp
  1366311089,                             ! Version Timestamp
  {f8f8557d-c6fb-4b6b-9b46-db670e9378e4}; ! Name of Object 1

