
OS:Version,
  {49e83c56-d922-4a34-a738-54b3ff040315}, ! Handle
  0.9.3;                                  ! Version Identifier

OS:SizingPeriod:DesignDay,
  {8a6b6a42-1843-484f-9d6c-c3ec6547b88f}, ! Handle
  Jacksonville/Int'l Air Ann Clg 1% Condns DP=>MDB, ! Name
  28.3,                                   ! Maximum Dry-Bulb Temperature {C}
  10,                                     ! Daily Dry-Bulb Temperature Range {deltaC}
  24.9,                                   ! Humidity Indicating Conditions at Maximum Dry-Bulb {BasedOnField A3}
  101217,                                 ! Barometric Pressure {Pa}
  3.6,                                    ! Wind Speed {m/s}
  260,                                    ! Wind Direction {deg}
  0,                                      ! Sky Clearness
  0,                                      ! Rain Indicator
  0,                                      ! Snow Indicator
  21,                                     ! Day of Month
  7,                                      ! Month
  SummerDesignDay,                        ! Day Type
  0,                                      ! Daylight Saving Time Indicator
  Dewpoint,                               ! Humidity Indicating Type
  ,                                       ! Humidity Indicating Day Schedule Name
  DefaultMultipliers,                     ! Dry-Bulb Temperature Range Modifier Type
  ,                                       ! Dry-Bulb Temperature Range Modifier Schedule Name
  ASHRAETau,                              ! Solar Model Indicator
  ,                                       ! Beam Solar Day Schedule Name
  ,                                       ! Diffuse Solar Day Schedule Name
  0.541,                                  ! ASHRAE Taub {dimensionless}
  1.863;                                  ! ASHRAE Taud {dimensionless}

OS:ComponentData,
  {c6465189-1101-4935-a3ef-46641d846b71}, ! Handle
  Component Data 1,                       ! Name
  {4a92e27d-f219-4a7b-b5b9-05488388c29c}, ! UUID
  {b41dda43-8db2-4632-9415-062b4e1f6597}, ! Version UUID
  1366306821,                             ! Creation Timestamp
  1366306821,                             ! Version Timestamp
  {8a6b6a42-1843-484f-9d6c-c3ec6547b88f}; ! Name of Object 1

