
OS:Version,
  {1c6663bd-cfd9-4f82-ac6c-8247d0fdf9c0}, ! Handle
  0.9.3;                                  ! Version Identifier

OS:SizingPeriod:DesignDay,
  {286b4e3e-fa22-4f50-b3d3-6fdf504a12f2}, ! Handle
  Berlin Municipal Ann Hum_n 99% Condns DP=>MCDB, ! Name
  -22.4,                                  ! Maximum Dry-Bulb Temperature {C}
  0,                                      ! Daily Dry-Bulb Temperature Range {deltaC}
  -27.9,                                  ! Humidity Indicating Conditions at Maximum Dry-Bulb {BasedOnField A3}
  97156,                                  ! Barometric Pressure {Pa}
  0.8,                                    ! Wind Speed {m/s}
  290,                                    ! Wind Direction {deg}
  0,                                      ! Sky Clearness
  0,                                      ! Rain Indicator
  0,                                      ! Snow Indicator
  21,                                     ! Day of Month
  1,                                      ! Month
  WinterDesignDay,                        ! Day Type
  0,                                      ! Daylight Saving Time Indicator
  Dewpoint,                               ! Humidity Indicating Type
  ,                                       ! Humidity Indicating Day Schedule Name
  DefaultMultipliers,                     ! Dry-Bulb Temperature Range Modifier Type
  ,                                       ! Dry-Bulb Temperature Range Modifier Schedule Name
  ASHRAEClearSky;                         ! Solar Model Indicator

OS:ComponentData,
  {97eceaab-99cc-40e0-a146-6f94e9a1a3d7}, ! Handle
  Component Data 1,                       ! Name
  {ea616fcd-2a5d-44f9-9684-d094c917b515}, ! UUID
  {81f5324a-b5b0-4e99-a535-ebf0ed6b2c83}, ! Version UUID
  1366309214,                             ! Creation Timestamp
  1366309214,                             ! Version Timestamp
  {286b4e3e-fa22-4f50-b3d3-6fdf504a12f2}; ! Name of Object 1

