
OS:Version,
  {04a12513-4bac-4566-b37e-4635acc153dc}, ! Handle
  0.9.3;                                  ! Version Identifier

OS:SizingPeriod:DesignDay,
  {cdbb56b6-41e1-4e31-bf48-88b0f49cbae7}, ! Handle
  KALISPELL Ann Htg 99.6% Condns DB,      ! Name
  -22.6,                                  ! Maximum Dry-Bulb Temperature {C}
  0,                                      ! Daily Dry-Bulb Temperature Range {deltaC}
  -22.6,                                  ! Humidity Indicating Conditions at Maximum Dry-Bulb {BasedOnField A3}
  90926,                                  ! Barometric Pressure {Pa}
  2,                                      ! Wind Speed {m/s}
  30,                                     ! Wind Direction {deg}
  0,                                      ! Sky Clearness
  0,                                      ! Rain Indicator
  0,                                      ! Snow Indicator
  21,                                     ! Day of Month
  12,                                     ! Month
  WinterDesignDay,                        ! Day Type
  0,                                      ! Daylight Saving Time Indicator
  Wetbulb,                                ! Humidity Indicating Type
  ,                                       ! Humidity Indicating Day Schedule Name
  DefaultMultipliers,                     ! Dry-Bulb Temperature Range Modifier Type
  ,                                       ! Dry-Bulb Temperature Range Modifier Schedule Name
  ASHRAEClearSky;                         ! Solar Model Indicator

OS:ComponentData,
  {f0fe941e-43fe-4d50-b654-a64f74e75a4c}, ! Handle
  Component Data 1,                       ! Name
  {2738ba73-58a4-4c13-8ca5-f26ef7654645}, ! UUID
  {07dc6182-3c8d-43ae-b3d2-7c8f815e14fe}, ! Version UUID
  1366308807,                             ! Creation Timestamp
  1366308807,                             ! Version Timestamp
  {cdbb56b6-41e1-4e31-bf48-88b0f49cbae7}; ! Name of Object 1

