
OS:Version,
  {a5022e80-4e4a-414e-89e9-0762e4a009e1}, ! Handle
  0.9.3;                                  ! Version Identifier

OS:SizingPeriod:DesignDay,
  {41fe4540-3674-4a61-9156-76e7708cb463}, ! Handle
  Ambler Ann Hum_n 99% Condns DP=>MCDB,   ! Name
  -27.7,                                  ! Maximum Dry-Bulb Temperature {C}
  0,                                      ! Daily Dry-Bulb Temperature Range {deltaC}
  -33.8,                                  ! Humidity Indicating Conditions at Maximum Dry-Bulb {BasedOnField A3}
  100272,                                 ! Barometric Pressure {Pa}
  0.7,                                    ! Wind Speed {m/s}
  40,                                     ! Wind Direction {deg}
  0,                                      ! Sky Clearness
  0,                                      ! Rain Indicator
  0,                                      ! Snow Indicator
  21,                                     ! Day of Month
  1,                                      ! Month
  WinterDesignDay,                        ! Day Type
  0,                                      ! Daylight Saving Time Indicator
  Dewpoint,                               ! Humidity Indicating Type
  ,                                       ! Humidity Indicating Day Schedule Name
  DefaultMultipliers,                     ! Dry-Bulb Temperature Range Modifier Type
  ,                                       ! Dry-Bulb Temperature Range Modifier Schedule Name
  ASHRAEClearSky;                         ! Solar Model Indicator

OS:ComponentData,
  {767a7eaf-83d2-4762-a005-3766843e1da8}, ! Handle
  Component Data 1,                       ! Name
  {aab6ef3e-0d2e-4d7a-ab7d-72dd89e50395}, ! UUID
  {ac82aa56-75b6-4bee-9111-b028ac7b99df}, ! Version UUID
  1366304684,                             ! Creation Timestamp
  1366304684,                             ! Version Timestamp
  {41fe4540-3674-4a61-9156-76e7708cb463}; ! Name of Object 1

