
OS:Version,
  {dac14421-b5d4-467f-8639-2835fc50c989}, ! Handle
  0.9.3;                                  ! Version Identifier

OS:SizingPeriod:DesignDay,
  {a543bf68-0e75-4f40-a0e4-986e836c91eb}, ! Handle
  Durango La Plata Co Ann Htg Wind 99% Condns WS=>MCDB, ! Name
  0.4,                                    ! Maximum Dry-Bulb Temperature {C}
  0,                                      ! Daily Dry-Bulb Temperature Range {deltaC}
  0.4,                                    ! Humidity Indicating Conditions at Maximum Dry-Bulb {BasedOnField A3}
  79121,                                  ! Barometric Pressure {Pa}
  8.7,                                    ! Wind Speed {m/s}
  20,                                     ! Wind Direction {deg}
  0,                                      ! Sky Clearness
  0,                                      ! Rain Indicator
  0,                                      ! Snow Indicator
  21,                                     ! Day of Month
  12,                                     ! Month
  WinterDesignDay,                        ! Day Type
  0,                                      ! Daylight Saving Time Indicator
  Wetbulb,                                ! Humidity Indicating Type
  ,                                       ! Humidity Indicating Day Schedule Name
  DefaultMultipliers,                     ! Dry-Bulb Temperature Range Modifier Type
  ,                                       ! Dry-Bulb Temperature Range Modifier Schedule Name
  ASHRAEClearSky;                         ! Solar Model Indicator

OS:ComponentData,
  {b07af389-3159-4b6f-adab-afc56bd3d224}, ! Handle
  Component Data 1,                       ! Name
  {8e95ff3d-63c0-4123-8f72-1ec8851fc6e0}, ! UUID
  {3907222b-4bbf-40c2-baa6-a5446e758350}, ! Version UUID
  1366306681,                             ! Creation Timestamp
  1366306681,                             ! Version Timestamp
  {a543bf68-0e75-4f40-a0e4-986e836c91eb}; ! Name of Object 1

