
OS:Version,
  {ac4b0361-6ab3-47b9-8931-ab7916e83e10}, ! Handle
  0.9.3;                                  ! Version Identifier

OS:SizingPeriod:DesignDay,
  {2b9d15e8-e2d5-4957-ac65-1ab6818a1727}, ! Handle
  BIRMINGHAM Ann Clg .4% Condns WB=>MDB,  ! Name
  31.3,                                   ! Maximum Dry-Bulb Temperature {C}
  10.3,                                   ! Daily Dry-Bulb Temperature Range {deltaC}
  25.8,                                   ! Humidity Indicating Conditions at Maximum Dry-Bulb {BasedOnField A3}
  99040,                                  ! Barometric Pressure {Pa}
  3.5,                                    ! Wind Speed {m/s}
  330,                                    ! Wind Direction {deg}
  0,                                      ! Sky Clearness
  0,                                      ! Rain Indicator
  0,                                      ! Snow Indicator
  21,                                     ! Day of Month
  7,                                      ! Month
  SummerDesignDay,                        ! Day Type
  0,                                      ! Daylight Saving Time Indicator
  Wetbulb,                                ! Humidity Indicating Type
  ,                                       ! Humidity Indicating Day Schedule Name
  DefaultMultipliers,                     ! Dry-Bulb Temperature Range Modifier Type
  ,                                       ! Dry-Bulb Temperature Range Modifier Schedule Name
  ASHRAETau,                              ! Solar Model Indicator
  ,                                       ! Beam Solar Day Schedule Name
  ,                                       ! Diffuse Solar Day Schedule Name
  0.583,                                  ! ASHRAE Taub {dimensionless}
  1.723;                                  ! ASHRAE Taud {dimensionless}

OS:ComponentData,
  {15b72d0a-2ea1-44b6-83e4-876c58c1d99d}, ! Handle
  Component Data 1,                       ! Name
  {863029ae-dd67-45ed-8826-4985345bfab6}, ! UUID
  {22723c85-c6b5-478d-9347-e4bf6b610202}, ! Version UUID
  1366305639,                             ! Creation Timestamp
  1366305639,                             ! Version Timestamp
  {2b9d15e8-e2d5-4957-ac65-1ab6818a1727}; ! Name of Object 1

