
OS:Version,
  {f2103ba5-9e94-48a5-9c84-a907bbaea497}, ! Handle
  0.9.3;                                  ! Version Identifier

OS:SizingPeriod:DesignDay,
  {06d89934-a764-4f30-b753-39573d22aa6b}, ! Handle
  Knoxville Mcghee Tyson Ap Ann Clg .4% Condns DP=>MDB, ! Name
  27.6,                                   ! Maximum Dry-Bulb Temperature {C}
  10.4,                                   ! Daily Dry-Bulb Temperature Range {deltaC}
  23.3,                                   ! Humidity Indicating Conditions at Maximum Dry-Bulb {BasedOnField A3}
  97854,                                  ! Barometric Pressure {Pa}
  3.2,                                    ! Wind Speed {m/s}
  250,                                    ! Wind Direction {deg}
  0,                                      ! Sky Clearness
  0,                                      ! Rain Indicator
  0,                                      ! Snow Indicator
  21,                                     ! Day of Month
  7,                                      ! Month
  SummerDesignDay,                        ! Day Type
  0,                                      ! Daylight Saving Time Indicator
  Dewpoint,                               ! Humidity Indicating Type
  ,                                       ! Humidity Indicating Day Schedule Name
  DefaultMultipliers,                     ! Dry-Bulb Temperature Range Modifier Type
  ,                                       ! Dry-Bulb Temperature Range Modifier Schedule Name
  ASHRAETau,                              ! Solar Model Indicator
  ,                                       ! Beam Solar Day Schedule Name
  ,                                       ! Diffuse Solar Day Schedule Name
  0.547,                                  ! ASHRAE Taub {dimensionless}
  1.786;                                  ! ASHRAE Taud {dimensionless}

OS:ComponentData,
  {08e25dee-9ced-4bc6-beea-51f46c6cfd81}, ! Handle
  Component Data 1,                       ! Name
  {51299cf4-f9d2-4a9a-9e48-3c9e8c06a5d9}, ! UUID
  {2b9261bc-a58f-4ea5-915d-27e946dbd0c0}, ! Version UUID
  1366310513,                             ! Creation Timestamp
  1366310513,                             ! Version Timestamp
  {06d89934-a764-4f30-b753-39573d22aa6b}; ! Name of Object 1

