
OS:Version,
  {5da10aa4-1502-4480-a6ac-68c6f29a9363}, ! Handle
  0.9.3;                                  ! Version Identifier

OS:SizingPeriod:DesignDay,
  {f07a5e72-cfce-482e-bd08-820fbe709f87}, ! Handle
  INTERNATIONAL_FALLS Ann Hum_n 99.6% Condns DP=>MCDB, ! Name
  -32,                                    ! Maximum Dry-Bulb Temperature {C}
  0,                                      ! Daily Dry-Bulb Temperature Range {deltaC}
  -35.8,                                  ! Humidity Indicating Conditions at Maximum Dry-Bulb {BasedOnField A3}
  97063,                                  ! Barometric Pressure {Pa}
  2.4,                                    ! Wind Speed {m/s}
  210,                                    ! Wind Direction {deg}
  0,                                      ! Sky Clearness
  0,                                      ! Rain Indicator
  0,                                      ! Snow Indicator
  21,                                     ! Day of Month
  1,                                      ! Month
  WinterDesignDay,                        ! Day Type
  0,                                      ! Daylight Saving Time Indicator
  Dewpoint,                               ! Humidity Indicating Type
  ,                                       ! Humidity Indicating Day Schedule Name
  DefaultMultipliers,                     ! Dry-Bulb Temperature Range Modifier Type
  ,                                       ! Dry-Bulb Temperature Range Modifier Schedule Name
  ASHRAEClearSky;                         ! Solar Model Indicator

OS:ComponentData,
  {7ac242c9-b9e4-4f5c-8e4a-a63876273cfb}, ! Handle
  Component Data 1,                       ! Name
  {516e2429-f890-4a2b-9f78-aa06f8711069}, ! UUID
  {1f221ea1-05d9-4af4-b9cc-678e5ffde53e}, ! Version UUID
  1366308264,                             ! Creation Timestamp
  1366308264,                             ! Version Timestamp
  {f07a5e72-cfce-482e-bd08-820fbe709f87}; ! Name of Object 1

