
OS:Version,
  {4081ae1b-66f2-4339-b3f1-edc4e09b4c44}, ! Handle
  0.9.3;                                  ! Version Identifier

OS:SizingPeriod:DesignDay,
  {5ebd388b-f6f8-40e8-8866-23bee2d91612}, ! Handle
  GOODLAND Ann Clg 1% Condns WB=>MDB,     ! Name
  29.7,                                   ! Maximum Dry-Bulb Temperature {C}
  15,                                     ! Daily Dry-Bulb Temperature Range {deltaC}
  21,                                     ! Humidity Indicating Conditions at Maximum Dry-Bulb {BasedOnField A3}
  88531,                                  ! Barometric Pressure {Pa}
  6,                                      ! Wind Speed {m/s}
  160,                                    ! Wind Direction {deg}
  0,                                      ! Sky Clearness
  0,                                      ! Rain Indicator
  0,                                      ! Snow Indicator
  21,                                     ! Day of Month
  7,                                      ! Month
  SummerDesignDay,                        ! Day Type
  0,                                      ! Daylight Saving Time Indicator
  Wetbulb,                                ! Humidity Indicating Type
  ,                                       ! Humidity Indicating Day Schedule Name
  DefaultMultipliers,                     ! Dry-Bulb Temperature Range Modifier Type
  ,                                       ! Dry-Bulb Temperature Range Modifier Schedule Name
  ASHRAETau,                              ! Solar Model Indicator
  ,                                       ! Beam Solar Day Schedule Name
  ,                                       ! Diffuse Solar Day Schedule Name
  0.421,                                  ! ASHRAE Taub {dimensionless}
  2.065;                                  ! ASHRAE Taud {dimensionless}

OS:ComponentData,
  {a993e23a-ea5e-4ee0-9d31-6745e12a5241}, ! Handle
  Component Data 1,                       ! Name
  {c3d6dfde-32fc-4cc8-be14-52f045a77545}, ! UUID
  {32771523-a437-4a50-b495-63e0d2b6fd7e}, ! Version UUID
  1366307538,                             ! Creation Timestamp
  1366307538,                             ! Version Timestamp
  {5ebd388b-f6f8-40e8-8866-23bee2d91612}; ! Name of Object 1

