
OS:Version,
  {0c63acad-0323-41bd-9a3b-fcc90d86c2ee}, ! Handle
  0.9.3;                                  ! Version Identifier

OS:SizingPeriod:DesignDay,
  {c4cec97a-951d-4206-8b95-4b7e92fb9976}, ! Handle
  Fairbanks/Int'l Airpor Ann Clg 1% Condns WB=>MDB, ! Name
  23.3,                                   ! Maximum Dry-Bulb Temperature {C}
  10.2,                                   ! Daily Dry-Bulb Temperature Range {deltaC}
  16.4,                                   ! Humidity Indicating Conditions at Maximum Dry-Bulb {BasedOnField A3}
  99678,                                  ! Barometric Pressure {Pa}
  3.1,                                    ! Wind Speed {m/s}
  180,                                    ! Wind Direction {deg}
  0,                                      ! Sky Clearness
  0,                                      ! Rain Indicator
  0,                                      ! Snow Indicator
  21,                                     ! Day of Month
  7,                                      ! Month
  SummerDesignDay,                        ! Day Type
  0,                                      ! Daylight Saving Time Indicator
  Wetbulb,                                ! Humidity Indicating Type
  ,                                       ! Humidity Indicating Day Schedule Name
  DefaultMultipliers,                     ! Dry-Bulb Temperature Range Modifier Type
  ,                                       ! Dry-Bulb Temperature Range Modifier Schedule Name
  ASHRAETau,                              ! Solar Model Indicator
  ,                                       ! Beam Solar Day Schedule Name
  ,                                       ! Diffuse Solar Day Schedule Name
  0.387,                                  ! ASHRAE Taub {dimensionless}
  2.212;                                  ! ASHRAE Taud {dimensionless}

OS:ComponentData,
  {5b2c18ad-d20b-4493-9437-53333fa7b7bb}, ! Handle
  Component Data 1,                       ! Name
  {39ca6791-aaff-40e4-9e7e-e81462e40220}, ! UUID
  {7405d85a-e186-4520-ac74-8b4644ae3b7c}, ! Version UUID
  1366305255,                             ! Creation Timestamp
  1366305255,                             ! Version Timestamp
  {c4cec97a-951d-4206-8b95-4b7e92fb9976}; ! Name of Object 1

