
OS:Version,
  {60e74a44-d31c-4b16-b700-a45d786281c8}, ! Handle
  0.9.3;                                  ! Version Identifier

OS:SizingPeriod:DesignDay,
  {ef78a0fb-8116-403b-a3a8-f92384984513}, ! Handle
  DODGE_CITY Ann Clg .4% Condns WB=>MDB,  ! Name
  31.9,                                   ! Maximum Dry-Bulb Temperature {C}
  13.9,                                   ! Daily Dry-Bulb Temperature Range {deltaC}
  23.5,                                   ! Humidity Indicating Conditions at Maximum Dry-Bulb {BasedOnField A3}
  92221,                                  ! Barometric Pressure {Pa}
  7.4,                                    ! Wind Speed {m/s}
  180,                                    ! Wind Direction {deg}
  0,                                      ! Sky Clearness
  0,                                      ! Rain Indicator
  0,                                      ! Snow Indicator
  21,                                     ! Day of Month
  7,                                      ! Month
  SummerDesignDay,                        ! Day Type
  0,                                      ! Daylight Saving Time Indicator
  Wetbulb,                                ! Humidity Indicating Type
  ,                                       ! Humidity Indicating Day Schedule Name
  DefaultMultipliers,                     ! Dry-Bulb Temperature Range Modifier Type
  ,                                       ! Dry-Bulb Temperature Range Modifier Schedule Name
  ASHRAETau,                              ! Solar Model Indicator
  ,                                       ! Beam Solar Day Schedule Name
  ,                                       ! Diffuse Solar Day Schedule Name
  0.419,                                  ! ASHRAE Taub {dimensionless}
  2.142;                                  ! ASHRAE Taud {dimensionless}

OS:ComponentData,
  {1b6fb068-0a5d-41fc-8ced-758cdb8fe5a6}, ! Handle
  Component Data 1,                       ! Name
  {21b0ff16-35ce-4e8c-8873-29212cf6445f}, ! UUID
  {ecd3cf75-990f-4f5d-9f3f-2207ab8e03d6}, ! Version UUID
  1366307505,                             ! Creation Timestamp
  1366307505,                             ! Version Timestamp
  {ef78a0fb-8116-403b-a3a8-f92384984513}; ! Name of Object 1

