
OS:Version,
  {f8af9b30-2ba1-4fda-b3f2-b0a3421d44a2}, ! Handle
  0.9.3;                                  ! Version Identifier

OS:SizingPeriod:DesignDay,
  {aa57f50e-c2a0-498f-892d-953a91a9d019}, ! Handle
  BROWNSVILLE Ann Clg 2% Condns DB=>MWB,  ! Name
  34,                                     ! Maximum Dry-Bulb Temperature {C}
  9.5,                                    ! Daily Dry-Bulb Temperature Range {deltaC}
  25.4,                                   ! Humidity Indicating Conditions at Maximum Dry-Bulb {BasedOnField A3}
  101253,                                 ! Barometric Pressure {Pa}
  6.9,                                    ! Wind Speed {m/s}
  160,                                    ! Wind Direction {deg}
  0,                                      ! Sky Clearness
  0,                                      ! Rain Indicator
  0,                                      ! Snow Indicator
  21,                                     ! Day of Month
  8,                                      ! Month
  SummerDesignDay,                        ! Day Type
  0,                                      ! Daylight Saving Time Indicator
  Wetbulb,                                ! Humidity Indicating Type
  ,                                       ! Humidity Indicating Day Schedule Name
  DefaultMultipliers,                     ! Dry-Bulb Temperature Range Modifier Type
  ,                                       ! Dry-Bulb Temperature Range Modifier Schedule Name
  ASHRAETau,                              ! Solar Model Indicator
  ,                                       ! Beam Solar Day Schedule Name
  ,                                       ! Diffuse Solar Day Schedule Name
  0.465,                                  ! ASHRAE Taub {dimensionless}
  2.114;                                  ! ASHRAE Taud {dimensionless}

OS:ComponentData,
  {a7306d63-1d0d-4d7c-b509-7971a1e00725}, ! Handle
  Component Data 1,                       ! Name
  {13dfb293-916e-47f2-93f8-c9766dd2f97d}, ! UUID
  {19292ba1-186b-440e-9ac6-df5de0b0cfb8}, ! Version UUID
  1366310610,                             ! Creation Timestamp
  1366310610,                             ! Version Timestamp
  {aa57f50e-c2a0-498f-892d-953a91a9d019}; ! Name of Object 1

