
OS:Version,
  {eaa3d114-d9c4-4724-9b58-00abe0eaa959}, ! Handle
  0.9.3;                                  ! Version Identifier

OS:SizingPeriod:DesignDay,
  {76b20820-dc08-4ba7-b5ed-1c906aed2a41}, ! Handle
  Grand Rapids Awos Ann Clg 1% Condns DB=>MWB, ! Name
  27.6,                                   ! Maximum Dry-Bulb Temperature {C}
  11.1,                                   ! Daily Dry-Bulb Temperature Range {deltaC}
  19.5,                                   ! Humidity Indicating Conditions at Maximum Dry-Bulb {BasedOnField A3}
  96461,                                  ! Barometric Pressure {Pa}
  4.7,                                    ! Wind Speed {m/s}
  170,                                    ! Wind Direction {deg}
  0,                                      ! Sky Clearness
  0,                                      ! Rain Indicator
  0,                                      ! Snow Indicator
  21,                                     ! Day of Month
  7,                                      ! Month
  SummerDesignDay,                        ! Day Type
  0,                                      ! Daylight Saving Time Indicator
  Wetbulb,                                ! Humidity Indicating Type
  ,                                       ! Humidity Indicating Day Schedule Name
  DefaultMultipliers,                     ! Dry-Bulb Temperature Range Modifier Type
  ,                                       ! Dry-Bulb Temperature Range Modifier Schedule Name
  ASHRAETau,                              ! Solar Model Indicator
  ,                                       ! Beam Solar Day Schedule Name
  ,                                       ! Diffuse Solar Day Schedule Name
  0.396,                                  ! ASHRAE Taub {dimensionless}
  2.227;                                  ! ASHRAE Taud {dimensionless}

OS:ComponentData,
  {07d437b0-b1c5-4154-b114-f6785f2032ac}, ! Handle
  Component Data 1,                       ! Name
  {299be613-77f9-498a-ac6d-5cf9a0fba526}, ! UUID
  {0cd06ab0-7198-4cfd-b0ad-9fb0c2567d37}, ! Version UUID
  1366308246,                             ! Creation Timestamp
  1366308246,                             ! Version Timestamp
  {76b20820-dc08-4ba7-b5ed-1c906aed2a41}; ! Name of Object 1

