
OS:Version,
  {9bea281a-4a74-4fc9-9fca-aecf8f41544d}, ! Handle
  0.9.3;                                  ! Version Identifier

OS:SizingPeriod:DesignDay,
  {8889d896-32ef-4493-8d22-31ce85546743}, ! Handle
  Burlington Municipal Ap Ann Clg 2% Condns DP=>MDB, ! Name
  27.9,                                   ! Maximum Dry-Bulb Temperature {C}
  10.3,                                   ! Daily Dry-Bulb Temperature Range {deltaC}
  22.8,                                   ! Humidity Indicating Conditions at Maximum Dry-Bulb {BasedOnField A3}
  98816,                                  ! Barometric Pressure {Pa}
  4.5,                                    ! Wind Speed {m/s}
  200,                                    ! Wind Direction {deg}
  0,                                      ! Sky Clearness
  0,                                      ! Rain Indicator
  0,                                      ! Snow Indicator
  21,                                     ! Day of Month
  7,                                      ! Month
  SummerDesignDay,                        ! Day Type
  0,                                      ! Daylight Saving Time Indicator
  Dewpoint,                               ! Humidity Indicating Type
  ,                                       ! Humidity Indicating Day Schedule Name
  DefaultMultipliers,                     ! Dry-Bulb Temperature Range Modifier Type
  ,                                       ! Dry-Bulb Temperature Range Modifier Schedule Name
  ASHRAETau,                              ! Solar Model Indicator
  ,                                       ! Beam Solar Day Schedule Name
  ,                                       ! Diffuse Solar Day Schedule Name
  0.45,                                   ! ASHRAE Taub {dimensionless}
  2.07;                                   ! ASHRAE Taud {dimensionless}

OS:ComponentData,
  {3fdaacac-002f-41af-823a-cc4231ec4e6c}, ! Handle
  Component Data 1,                       ! Name
  {f1a3ef59-36a0-4bd4-a875-1ff5b79ca271}, ! UUID
  {2c745b4f-0725-4d71-874b-9565afb825cf}, ! Version UUID
  1366307144,                             ! Creation Timestamp
  1366307144,                             ! Version Timestamp
  {8889d896-32ef-4493-8d22-31ce85546743}; ! Name of Object 1

