
OS:Version,
  {6831803f-605a-4afe-8c28-df53b88f270f}, ! Handle
  0.9.3;                                  ! Version Identifier

OS:SizingPeriod:DesignDay,
  {3b203e89-ad61-4921-8099-b8dc3be75a7d}, ! Handle
  Dayton International Airport Ann Clg .4% Condns DB=>MWB, ! Name
  32.4,                                   ! Maximum Dry-Bulb Temperature {C}
  10.3,                                   ! Daily Dry-Bulb Temperature Range {deltaC}
  23.1,                                   ! Humidity Indicating Conditions at Maximum Dry-Bulb {BasedOnField A3}
  97714,                                  ! Barometric Pressure {Pa}
  4.7,                                    ! Wind Speed {m/s}
  240,                                    ! Wind Direction {deg}
  0,                                      ! Sky Clearness
  0,                                      ! Rain Indicator
  0,                                      ! Snow Indicator
  21,                                     ! Day of Month
  7,                                      ! Month
  SummerDesignDay,                        ! Day Type
  0,                                      ! Daylight Saving Time Indicator
  Wetbulb,                                ! Humidity Indicating Type
  ,                                       ! Humidity Indicating Day Schedule Name
  DefaultMultipliers,                     ! Dry-Bulb Temperature Range Modifier Type
  ,                                       ! Dry-Bulb Temperature Range Modifier Schedule Name
  ASHRAETau,                              ! Solar Model Indicator
  ,                                       ! Beam Solar Day Schedule Name
  ,                                       ! Diffuse Solar Day Schedule Name
  0.478,                                  ! ASHRAE Taub {dimensionless}
  1.955;                                  ! ASHRAE Taud {dimensionless}

OS:ComponentData,
  {a63666d0-d0ed-4eb4-b8c4-a2750b557da5}, ! Handle
  Component Data 1,                       ! Name
  {027847c8-7338-40dc-96c0-51f4f3e6d555}, ! UUID
  {51d1f8c9-aed7-4b3f-b883-284fdc8a341a}, ! Version UUID
  1366309821,                             ! Creation Timestamp
  1366309821,                             ! Version Timestamp
  {3b203e89-ad61-4921-8099-b8dc3be75a7d}; ! Name of Object 1

