
OS:Version,
  {7e0a39e9-9fd7-4244-89c3-ebada76b7528}, ! Handle
  0.9.3;                                  ! Version Identifier

OS:SizingPeriod:DesignDay,
  {9e16c20c-b773-4ff2-9408-7c32e60a60d2}, ! Handle
  LIHUE Ann Clg 2% Condns Enth=>MDB,      ! Name
  27.5,                                   ! Maximum Dry-Bulb Temperature {C}
  4.8,                                    ! Daily Dry-Bulb Temperature Range {deltaC}
  73200,                                  ! Humidity Indicating Conditions at Maximum Dry-Bulb {BasedOnField A3}
  100786,                                 ! Barometric Pressure {Pa}
  6.4,                                    ! Wind Speed {m/s}
  60,                                     ! Wind Direction {deg}
  0,                                      ! Sky Clearness
  0,                                      ! Rain Indicator
  0,                                      ! Snow Indicator
  21,                                     ! Day of Month
  8,                                      ! Month
  SummerDesignDay,                        ! Day Type
  0,                                      ! Daylight Saving Time Indicator
  Enthalpy,                               ! Humidity Indicating Type
  ,                                       ! Humidity Indicating Day Schedule Name
  DefaultMultipliers,                     ! Dry-Bulb Temperature Range Modifier Type
  ,                                       ! Dry-Bulb Temperature Range Modifier Schedule Name
  ASHRAETau,                              ! Solar Model Indicator
  ,                                       ! Beam Solar Day Schedule Name
  ,                                       ! Diffuse Solar Day Schedule Name
  0.385,                                  ! ASHRAE Taub {dimensionless}
  2.509;                                  ! ASHRAE Taud {dimensionless}

OS:ComponentData,
  {94edb09f-8779-458e-9a67-0aacb0b117e6}, ! Handle
  Component Data 1,                       ! Name
  {3a95fb7c-0aad-49bf-bebc-038575bbeda9}, ! UUID
  {816fca58-9460-47bd-828f-dd3144d67989}, ! Version UUID
  1366307115,                             ! Creation Timestamp
  1366307115,                             ! Version Timestamp
  {9e16c20c-b773-4ff2-9408-7c32e60a60d2}; ! Name of Object 1

