
OS:Version,
  {e4c7a2dc-fa07-44a8-84f6-b8a67dc27e5d}, ! Handle
  0.9.3;                                  ! Version Identifier

OS:SizingPeriod:DesignDay,
  {8827b93a-e7f2-4e12-b60b-b7e1b111b1d4}, ! Handle
  Batesville  Awos Ann Clg .4% Condns DB=>MWB, ! Name
  36.3,                                   ! Maximum Dry-Bulb Temperature {C}
  11,                                     ! Daily Dry-Bulb Temperature Range {deltaC}
  24.4,                                   ! Humidity Indicating Conditions at Maximum Dry-Bulb {BasedOnField A3}
  99643,                                  ! Barometric Pressure {Pa}
  3.4,                                    ! Wind Speed {m/s}
  190,                                    ! Wind Direction {deg}
  0,                                      ! Sky Clearness
  0,                                      ! Rain Indicator
  0,                                      ! Snow Indicator
  21,                                     ! Day of Month
  7,                                      ! Month
  SummerDesignDay,                        ! Day Type
  0,                                      ! Daylight Saving Time Indicator
  Wetbulb,                                ! Humidity Indicating Type
  ,                                       ! Humidity Indicating Day Schedule Name
  DefaultMultipliers,                     ! Dry-Bulb Temperature Range Modifier Type
  ,                                       ! Dry-Bulb Temperature Range Modifier Schedule Name
  ASHRAETau,                              ! Solar Model Indicator
  ,                                       ! Beam Solar Day Schedule Name
  ,                                       ! Diffuse Solar Day Schedule Name
  0.493,                                  ! ASHRAE Taub {dimensionless}
  1.953;                                  ! ASHRAE Taud {dimensionless}

OS:ComponentData,
  {f334566f-248a-4e29-97fd-8c2b91f95204}, ! Handle
  Component Data 1,                       ! Name
  {33ca8041-ef45-43d6-a3c0-1bb17b30e56e}, ! UUID
  {6cde46ff-5d1c-43a4-9617-258a9bbfed50}, ! Version UUID
  1366306058,                             ! Creation Timestamp
  1366306058,                             ! Version Timestamp
  {8827b93a-e7f2-4e12-b60b-b7e1b111b1d4}; ! Name of Object 1

