
OS:Version,
  {63977d26-965c-4a82-b2dd-5e8c1af6b77c}, ! Handle
  0.9.3;                                  ! Version Identifier

OS:SizingPeriod:DesignDay,
  {30841d9f-ceb1-456a-8f5c-34acf9e0f652}, ! Handle
  Hastings Municipal Ann Htg Wind 99% Condns WS=>MCDB, ! Name
  -0.5,                                   ! Maximum Dry-Bulb Temperature {C}
  0,                                      ! Daily Dry-Bulb Temperature Range {deltaC}
  -0.5,                                   ! Humidity Indicating Conditions at Maximum Dry-Bulb {BasedOnField A3}
  94367,                                  ! Barometric Pressure {Pa}
  13.3,                                   ! Wind Speed {m/s}
  340,                                    ! Wind Direction {deg}
  0,                                      ! Sky Clearness
  0,                                      ! Rain Indicator
  0,                                      ! Snow Indicator
  21,                                     ! Day of Month
  1,                                      ! Month
  WinterDesignDay,                        ! Day Type
  0,                                      ! Daylight Saving Time Indicator
  Wetbulb,                                ! Humidity Indicating Type
  ,                                       ! Humidity Indicating Day Schedule Name
  DefaultMultipliers,                     ! Dry-Bulb Temperature Range Modifier Type
  ,                                       ! Dry-Bulb Temperature Range Modifier Schedule Name
  ASHRAEClearSky;                         ! Solar Model Indicator

OS:ComponentData,
  {9ca0f688-0287-47fd-bf0b-64098cc55677}, ! Handle
  Component Data 1,                       ! Name
  {41a3eb20-c597-4d18-b5bc-a5b62d92d4cf}, ! UUID
  {69431fd7-6ee8-43b6-bcb4-70f6bd63b6a2}, ! Version UUID
  1366309125,                             ! Creation Timestamp
  1366309125,                             ! Version Timestamp
  {30841d9f-ceb1-456a-8f5c-34acf9e0f652}; ! Name of Object 1

