
OS:Version,
  {313b215e-6e54-460e-90e9-38e7869af251}, ! Handle
  0.9.3;                                  ! Version Identifier

OS:SizingPeriod:DesignDay,
  {1670a97a-3725-43c1-90a3-bd53f4eae9b9}, ! Handle
  Fort Myers Page Field Ann Clg 2% Condns WB=>MDB, ! Name
  30.5,                                   ! Maximum Dry-Bulb Temperature {C}
  9,                                      ! Daily Dry-Bulb Temperature Range {deltaC}
  26.2,                                   ! Humidity Indicating Conditions at Maximum Dry-Bulb {BasedOnField A3}
  101265,                                 ! Barometric Pressure {Pa}
  3.8,                                    ! Wind Speed {m/s}
  70,                                     ! Wind Direction {deg}
  0,                                      ! Sky Clearness
  0,                                      ! Rain Indicator
  0,                                      ! Snow Indicator
  21,                                     ! Day of Month
  8,                                      ! Month
  SummerDesignDay,                        ! Day Type
  0,                                      ! Daylight Saving Time Indicator
  Wetbulb,                                ! Humidity Indicating Type
  ,                                       ! Humidity Indicating Day Schedule Name
  DefaultMultipliers,                     ! Dry-Bulb Temperature Range Modifier Type
  ,                                       ! Dry-Bulb Temperature Range Modifier Schedule Name
  ASHRAETau,                              ! Solar Model Indicator
  ,                                       ! Beam Solar Day Schedule Name
  ,                                       ! Diffuse Solar Day Schedule Name
  0.488,                                  ! ASHRAE Taub {dimensionless}
  2.035;                                  ! ASHRAE Taud {dimensionless}

OS:ComponentData,
  {e7100ffc-4385-413c-9d9b-995201eac825}, ! Handle
  Component Data 1,                       ! Name
  {a76fcc60-96ab-4281-ad25-4b948fe9016d}, ! UUID
  {ce5ea118-bedb-4876-8a74-3e66444ab10e}, ! Version UUID
  1366306801,                             ! Creation Timestamp
  1366306801,                             ! Version Timestamp
  {1670a97a-3725-43c1-90a3-bd53f4eae9b9}; ! Name of Object 1

