
OS:Version,
  {783967a2-c8c7-49d7-bae5-959dc2e28874}, ! Handle
  0.9.3;                                  ! Version Identifier

OS:SizingPeriod:DesignDay,
  {90e94fb7-9816-409c-af30-084faa385afb}, ! Handle
  Klamath Falls Intl Ap  Uo Ann Hum_n 99% Condns DP=>MCDB, ! Name
  -8.8,                                   ! Maximum Dry-Bulb Temperature {C}
  0,                                      ! Daily Dry-Bulb Temperature Range {deltaC}
  -12.9,                                  ! Humidity Indicating Conditions at Maximum Dry-Bulb {BasedOnField A3}
  87502,                                  ! Barometric Pressure {Pa}
  1.2,                                    ! Wind Speed {m/s}
  320,                                    ! Wind Direction {deg}
  0,                                      ! Sky Clearness
  0,                                      ! Rain Indicator
  0,                                      ! Snow Indicator
  21,                                     ! Day of Month
  12,                                     ! Month
  WinterDesignDay,                        ! Day Type
  0,                                      ! Daylight Saving Time Indicator
  Dewpoint,                               ! Humidity Indicating Type
  ,                                       ! Humidity Indicating Day Schedule Name
  DefaultMultipliers,                     ! Dry-Bulb Temperature Range Modifier Type
  ,                                       ! Dry-Bulb Temperature Range Modifier Schedule Name
  ASHRAEClearSky;                         ! Solar Model Indicator

OS:ComponentData,
  {a6c5bccf-aafd-4e0b-8174-6e7a3287bff9}, ! Handle
  Component Data 1,                       ! Name
  {8c0a0eb9-2ac6-405e-a1b9-ef0442ebfb9d}, ! UUID
  {6bd644c6-8d84-48fe-bdde-9694081ee231}, ! Version UUID
  1366310016,                             ! Creation Timestamp
  1366310016,                             ! Version Timestamp
  {90e94fb7-9816-409c-af30-084faa385afb}; ! Name of Object 1

