
OS:Version,
  {480ef548-e474-44e8-a29a-447a2e1a42df}, ! Handle
  0.9.3;                                  ! Version Identifier

OS:SizingPeriod:DesignDay,
  {77fd2a4c-f527-424d-8818-e484bda56b93}, ! Handle
  Corpus Christi Ann Clg .4% Condns Enth=>MDB, ! Name
  32,                                     ! Maximum Dry-Bulb Temperature {C}
  10.1,                                   ! Daily Dry-Bulb Temperature Range {deltaC}
  85500,                                  ! Humidity Indicating Conditions at Maximum Dry-Bulb {BasedOnField A3}
  101169,                                 ! Barometric Pressure {Pa}
  6.6,                                    ! Wind Speed {m/s}
  140,                                    ! Wind Direction {deg}
  0,                                      ! Sky Clearness
  0,                                      ! Rain Indicator
  0,                                      ! Snow Indicator
  21,                                     ! Day of Month
  8,                                      ! Month
  SummerDesignDay,                        ! Day Type
  0,                                      ! Daylight Saving Time Indicator
  Enthalpy,                               ! Humidity Indicating Type
  ,                                       ! Humidity Indicating Day Schedule Name
  DefaultMultipliers,                     ! Dry-Bulb Temperature Range Modifier Type
  ,                                       ! Dry-Bulb Temperature Range Modifier Schedule Name
  ASHRAETau,                              ! Solar Model Indicator
  ,                                       ! Beam Solar Day Schedule Name
  ,                                       ! Diffuse Solar Day Schedule Name
  0.463,                                  ! ASHRAE Taub {dimensionless}
  2.116;                                  ! ASHRAE Taud {dimensionless}

OS:ComponentData,
  {5ef61d1f-4a56-4c08-80c4-841e753c4ae8}, ! Handle
  Component Data 1,                       ! Name
  {ad47182d-bfac-4d4b-ac4a-da89e1be45ed}, ! UUID
  {b46966b1-dccf-43ea-8dce-54c69068c534}, ! Version UUID
  1366310627,                             ! Creation Timestamp
  1366310627,                             ! Version Timestamp
  {77fd2a4c-f527-424d-8818-e484bda56b93}; ! Name of Object 1

