
OS:Version,
  {613a3c2e-1295-4cc0-8717-36003ad8aa3c}, ! Handle
  0.9.3;                                  ! Version Identifier

OS:SizingPeriod:DesignDay,
  {6464c3b6-3058-47d9-a9b9-5c3274aa7382}, ! Handle
  Amarillo Ann Clg 2% Condns Enth=>MDB,   ! Name
  29.3,                                   ! Maximum Dry-Bulb Temperature {C}
  13.8,                                   ! Daily Dry-Bulb Temperature Range {deltaC}
  64300,                                  ! Humidity Indicating Conditions at Maximum Dry-Bulb {BasedOnField A3}
  88801,                                  ! Barometric Pressure {Pa}
  6.9,                                    ! Wind Speed {m/s}
  210,                                    ! Wind Direction {deg}
  0,                                      ! Sky Clearness
  0,                                      ! Rain Indicator
  0,                                      ! Snow Indicator
  21,                                     ! Day of Month
  7,                                      ! Month
  SummerDesignDay,                        ! Day Type
  0,                                      ! Daylight Saving Time Indicator
  Enthalpy,                               ! Humidity Indicating Type
  ,                                       ! Humidity Indicating Day Schedule Name
  DefaultMultipliers,                     ! Dry-Bulb Temperature Range Modifier Type
  ,                                       ! Dry-Bulb Temperature Range Modifier Schedule Name
  ASHRAETau,                              ! Solar Model Indicator
  ,                                       ! Beam Solar Day Schedule Name
  ,                                       ! Diffuse Solar Day Schedule Name
  0.414,                                  ! ASHRAE Taub {dimensionless}
  2.136;                                  ! ASHRAE Taud {dimensionless}

OS:ComponentData,
  {af98b44d-cd7e-4477-8412-6f6e0ff7c8c0}, ! Handle
  Component Data 1,                       ! Name
  {d7d4d394-0a76-4c9a-89ef-0790dd4c3440}, ! UUID
  {efbcf136-698d-4f47-904c-055f8c1db13b}, ! Version UUID
  1366310571,                             ! Creation Timestamp
  1366310571,                             ! Version Timestamp
  {6464c3b6-3058-47d9-a9b9-5c3274aa7382}; ! Name of Object 1

