
OS:Version,
  {f9e5166c-f23e-4fa6-93ee-3b0ae4a34b83}, ! Handle
  0.9.3;                                  ! Version Identifier

OS:SizingPeriod:DesignDay,
  {2b02f7b0-2b6e-442d-acc5-c81b7aad6589}, ! Handle
  Kodiak/State USCG Base Ann Clg 2% Condns DP=>MDB, ! Name
  14.3,                                   ! Maximum Dry-Bulb Temperature {C}
  6.4,                                    ! Daily Dry-Bulb Temperature Range {deltaC}
  12,                                     ! Humidity Indicating Conditions at Maximum Dry-Bulb {BasedOnField A3}
  100917,                                 ! Barometric Pressure {Pa}
  5.2,                                    ! Wind Speed {m/s}
  310,                                    ! Wind Direction {deg}
  0,                                      ! Sky Clearness
  0,                                      ! Rain Indicator
  0,                                      ! Snow Indicator
  21,                                     ! Day of Month
  8,                                      ! Month
  SummerDesignDay,                        ! Day Type
  0,                                      ! Daylight Saving Time Indicator
  Dewpoint,                               ! Humidity Indicating Type
  ,                                       ! Humidity Indicating Day Schedule Name
  DefaultMultipliers,                     ! Dry-Bulb Temperature Range Modifier Type
  ,                                       ! Dry-Bulb Temperature Range Modifier Schedule Name
  ASHRAETau,                              ! Solar Model Indicator
  ,                                       ! Beam Solar Day Schedule Name
  ,                                       ! Diffuse Solar Day Schedule Name
  0.36,                                   ! ASHRAE Taub {dimensionless}
  2.361;                                  ! ASHRAE Taud {dimensionless}

OS:ComponentData,
  {adf870f8-dbcc-4802-bf47-6b501ff06fbd}, ! Handle
  Component Data 1,                       ! Name
  {a6dfc29c-72c0-443f-974a-6bcb87a7fde0}, ! UUID
  {b9693b28-dcad-42eb-94a5-15dda451b36a}, ! Version UUID
  1366305375,                             ! Creation Timestamp
  1366305375,                             ! Version Timestamp
  {2b02f7b0-2b6e-442d-acc5-c81b7aad6589}; ! Name of Object 1

