
OS:Version,
  {1ca26a02-8fd5-4cfe-b3e4-ead07c2bac28}, ! Handle
  0.9.3;                                  ! Version Identifier

OS:SizingPeriod:DesignDay,
  {33729a42-b671-4873-a10c-fc40de7f6a0d}, ! Handle
  Greensboro Ann Clg 1% Condns WB=>MDB,   ! Name
  29.8,                                   ! Maximum Dry-Bulb Temperature {C}
  9.9,                                    ! Daily Dry-Bulb Temperature Range {deltaC}
  24.3,                                   ! Humidity Indicating Conditions at Maximum Dry-Bulb {BasedOnField A3}
  98123,                                  ! Barometric Pressure {Pa}
  3.4,                                    ! Wind Speed {m/s}
  230,                                    ! Wind Direction {deg}
  0,                                      ! Sky Clearness
  0,                                      ! Rain Indicator
  0,                                      ! Snow Indicator
  21,                                     ! Day of Month
  7,                                      ! Month
  SummerDesignDay,                        ! Day Type
  0,                                      ! Daylight Saving Time Indicator
  Wetbulb,                                ! Humidity Indicating Type
  ,                                       ! Humidity Indicating Day Schedule Name
  DefaultMultipliers,                     ! Dry-Bulb Temperature Range Modifier Type
  ,                                       ! Dry-Bulb Temperature Range Modifier Schedule Name
  ASHRAETau,                              ! Solar Model Indicator
  ,                                       ! Beam Solar Day Schedule Name
  ,                                       ! Diffuse Solar Day Schedule Name
  0.557,                                  ! ASHRAE Taub {dimensionless}
  1.757;                                  ! ASHRAE Taud {dimensionless}

OS:ComponentData,
  {b674ba15-242e-47d2-8f95-fbaebcbdd5ff}, ! Handle
  Component Data 1,                       ! Name
  {3d28f385-ddbe-43ec-9717-bf781242dea5}, ! UUID
  {54973ded-1c8c-45a0-b352-c6c47afa4b0d}, ! Version UUID
  1366308928,                             ! Creation Timestamp
  1366308928,                             ! Version Timestamp
  {33729a42-b671-4873-a10c-fc40de7f6a0d}; ! Name of Object 1

