
OS:Version,
  {a2efda35-ab43-4258-8188-435919c5de69}, ! Handle
  0.9.3;                                  ! Version Identifier

OS:SizingPeriod:DesignDay,
  {7677843c-e062-44ef-bd82-b34024a976b6}, ! Handle
  BOSTON Ann Hum_n 99% Condns DP=>MCDB,   ! Name
  -9.3,                                   ! Maximum Dry-Bulb Temperature {C}
  0,                                      ! Daily Dry-Bulb Temperature Range {deltaC}
  -21.7,                                  ! Humidity Indicating Conditions at Maximum Dry-Bulb {BasedOnField A3}
  101265,                                 ! Barometric Pressure {Pa}
  7.2,                                    ! Wind Speed {m/s}
  320,                                    ! Wind Direction {deg}
  0,                                      ! Sky Clearness
  0,                                      ! Rain Indicator
  0,                                      ! Snow Indicator
  21,                                     ! Day of Month
  1,                                      ! Month
  WinterDesignDay,                        ! Day Type
  0,                                      ! Daylight Saving Time Indicator
  Dewpoint,                               ! Humidity Indicating Type
  ,                                       ! Humidity Indicating Day Schedule Name
  DefaultMultipliers,                     ! Dry-Bulb Temperature Range Modifier Type
  ,                                       ! Dry-Bulb Temperature Range Modifier Schedule Name
  ASHRAEClearSky;                         ! Solar Model Indicator

OS:ComponentData,
  {50d3775e-b2c8-4363-af17-295879dec41a}, ! Handle
  Component Data 1,                       ! Name
  {083c2d2f-3751-48a2-90c8-3e10c8187bec}, ! UUID
  {d992f93e-f61a-4f54-8102-a219d0c5bfd8}, ! Version UUID
  1366307781,                             ! Creation Timestamp
  1366307781,                             ! Version Timestamp
  {7677843c-e062-44ef-bd82-b34024a976b6}; ! Name of Object 1

