
OS:Version,
  {f710f495-f6a6-40b0-930e-673efaa96069}, ! Handle
  0.9.3;                                  ! Version Identifier

OS:SizingPeriod:DesignDay,
  {063869ea-2941-4fc7-85c3-ada638c7dbad}, ! Handle
  Jonesboro Muni Ann Htg Wind 99% Condns WS=>MCDB, ! Name
  11.8,                                   ! Maximum Dry-Bulb Temperature {C}
  0,                                      ! Daily Dry-Bulb Temperature Range {deltaC}
  11.8,                                   ! Humidity Indicating Conditions at Maximum Dry-Bulb {BasedOnField A3}
  100344,                                 ! Barometric Pressure {Pa}
  10,                                     ! Wind Speed {m/s}
  30,                                     ! Wind Direction {deg}
  0,                                      ! Sky Clearness
  0,                                      ! Rain Indicator
  0,                                      ! Snow Indicator
  21,                                     ! Day of Month
  1,                                      ! Month
  WinterDesignDay,                        ! Day Type
  0,                                      ! Daylight Saving Time Indicator
  Wetbulb,                                ! Humidity Indicating Type
  ,                                       ! Humidity Indicating Day Schedule Name
  DefaultMultipliers,                     ! Dry-Bulb Temperature Range Modifier Type
  ,                                       ! Dry-Bulb Temperature Range Modifier Schedule Name
  ASHRAEClearSky;                         ! Solar Model Indicator

OS:ComponentData,
  {ba04fc9e-c44a-4fd7-b1f0-013aa3689f0b}, ! Handle
  Component Data 1,                       ! Name
  {f7ed8a47-7009-4b87-ae1a-85e37e33243f}, ! UUID
  {58050237-04b3-4379-80bc-24afeff4a6c4}, ! Version UUID
  1366306219,                             ! Creation Timestamp
  1366306219,                             ! Version Timestamp
  {063869ea-2941-4fc7-85c3-ada638c7dbad}; ! Name of Object 1

