
OS:Version,
  {daa799b0-9fde-4255-99e4-10bb2e88bbff}, ! Handle
  0.9.3;                                  ! Version Identifier

OS:SizingPeriod:DesignDay,
  {efa24eaf-6450-4f2f-9e1a-08ad8b8c3037}, ! Handle
  FARGO Ann Clg 1% Condns Enth=>MDB,      ! Name
  28.7,                                   ! Maximum Dry-Bulb Temperature {C}
  11.8,                                   ! Daily Dry-Bulb Temperature Range {deltaC}
  69700,                                  ! Humidity Indicating Conditions at Maximum Dry-Bulb {BasedOnField A3}
  98076,                                  ! Barometric Pressure {Pa}
  6.5,                                    ! Wind Speed {m/s}
  170,                                    ! Wind Direction {deg}
  0,                                      ! Sky Clearness
  0,                                      ! Rain Indicator
  0,                                      ! Snow Indicator
  21,                                     ! Day of Month
  7,                                      ! Month
  SummerDesignDay,                        ! Day Type
  0,                                      ! Daylight Saving Time Indicator
  Enthalpy,                               ! Humidity Indicating Type
  ,                                       ! Humidity Indicating Day Schedule Name
  DefaultMultipliers,                     ! Dry-Bulb Temperature Range Modifier Type
  ,                                       ! Dry-Bulb Temperature Range Modifier Schedule Name
  ASHRAETau,                              ! Solar Model Indicator
  ,                                       ! Beam Solar Day Schedule Name
  ,                                       ! Diffuse Solar Day Schedule Name
  0.396,                                  ! ASHRAE Taub {dimensionless}
  2.253;                                  ! ASHRAE Taud {dimensionless}

OS:ComponentData,
  {567b0d6c-0a55-41dc-96d1-992cd0ae07fe}, ! Handle
  Component Data 1,                       ! Name
  {070ed9a2-2194-46d1-8cc0-51cb267e9552}, ! UUID
  {039517ab-b99f-472a-8d81-884b0318d548}, ! Version UUID
  1366309039,                             ! Creation Timestamp
  1366309039,                             ! Version Timestamp
  {efa24eaf-6450-4f2f-9e1a-08ad8b8c3037}; ! Name of Object 1

