
OS:Version,
  {4686171f-bd5d-46c6-9e45-68df6077c178}, ! Handle
  0.9.3;                                  ! Version Identifier

OS:SizingPeriod:DesignDay,
  {3221d58f-569d-4ae9-be3a-3aedc837f533}, ! Handle
  LAKE_CHARLES Ann Htg Wind 99.6% Condns WS=>MCDB, ! Name
  12.7,                                   ! Maximum Dry-Bulb Temperature {C}
  0,                                      ! Daily Dry-Bulb Temperature Range {deltaC}
  12.7,                                   ! Humidity Indicating Conditions at Maximum Dry-Bulb {BasedOnField A3}
  101289,                                 ! Barometric Pressure {Pa}
  11,                                     ! Wind Speed {m/s}
  20,                                     ! Wind Direction {deg}
  0,                                      ! Sky Clearness
  0,                                      ! Rain Indicator
  0,                                      ! Snow Indicator
  21,                                     ! Day of Month
  1,                                      ! Month
  WinterDesignDay,                        ! Day Type
  0,                                      ! Daylight Saving Time Indicator
  Wetbulb,                                ! Humidity Indicating Type
  ,                                       ! Humidity Indicating Day Schedule Name
  DefaultMultipliers,                     ! Dry-Bulb Temperature Range Modifier Type
  ,                                       ! Dry-Bulb Temperature Range Modifier Schedule Name
  ASHRAEClearSky;                         ! Solar Model Indicator

OS:ComponentData,
  {38818057-77ef-4b83-982e-2657eec8d042}, ! Handle
  Component Data 1,                       ! Name
  {d78828f6-23e3-4223-91c9-01166d1c8d1b}, ! UUID
  {1a80b2cb-6570-4e4e-9667-18e780d32aa5}, ! Version UUID
  1366307723,                             ! Creation Timestamp
  1366307723,                             ! Version Timestamp
  {3221d58f-569d-4ae9-be3a-3aedc837f533}; ! Name of Object 1

