
OS:Version,
  {70e0fca7-fc5f-44dc-b301-28e62eb9b9ad}, ! Handle
  0.9.3;                                  ! Version Identifier

OS:SizingPeriod:DesignDay,
  {2331c7aa-376a-46e6-8c83-2bf3f39940a7}, ! Handle
  Bismarck Municipal Arpt  Isis Ann Hum_n 99.6% Condns DP=>MCDB, ! Name
  -28.5,                                  ! Maximum Dry-Bulb Temperature {C}
  0,                                      ! Daily Dry-Bulb Temperature Range {deltaC}
  -32.6,                                  ! Humidity Indicating Conditions at Maximum Dry-Bulb {BasedOnField A3}
  95438,                                  ! Barometric Pressure {Pa}
  3.7,                                    ! Wind Speed {m/s}
  320,                                    ! Wind Direction {deg}
  0,                                      ! Sky Clearness
  0,                                      ! Rain Indicator
  0,                                      ! Snow Indicator
  21,                                     ! Day of Month
  1,                                      ! Month
  WinterDesignDay,                        ! Day Type
  0,                                      ! Daylight Saving Time Indicator
  Dewpoint,                               ! Humidity Indicating Type
  ,                                       ! Humidity Indicating Day Schedule Name
  DefaultMultipliers,                     ! Dry-Bulb Temperature Range Modifier Type
  ,                                       ! Dry-Bulb Temperature Range Modifier Schedule Name
  ASHRAEClearSky;                         ! Solar Model Indicator

OS:ComponentData,
  {7f9b8f2b-4966-45f0-92fb-c4652dbc3075}, ! Handle
  Component Data 1,                       ! Name
  {9e3b169b-c208-457c-afb9-2ef9cf698905}, ! UUID
  {14f3de72-3eb2-416f-9429-05558333f9c9}, ! Version UUID
  1366309006,                             ! Creation Timestamp
  1366309006,                             ! Version Timestamp
  {2331c7aa-376a-46e6-8c83-2bf3f39940a7}; ! Name of Object 1

