
OS:Version,
  {d91d75d0-3c53-482c-8eb9-4f33746ef373}, ! Handle
  0.9.3;                                  ! Version Identifier

OS:SizingPeriod:DesignDay,
  {b33ccba0-c9c0-44f4-aea7-0302272d9a21}, ! Handle
  Louisville Standiford Field Ann Clg 2% Condns WB=>MDB, ! Name
  29.8,                                   ! Maximum Dry-Bulb Temperature {C}
  9.7,                                    ! Daily Dry-Bulb Temperature Range {deltaC}
  24.6,                                   ! Humidity Indicating Conditions at Maximum Dry-Bulb {BasedOnField A3}
  99571,                                  ! Barometric Pressure {Pa}
  4.2,                                    ! Wind Speed {m/s}
  240,                                    ! Wind Direction {deg}
  0,                                      ! Sky Clearness
  0,                                      ! Rain Indicator
  0,                                      ! Snow Indicator
  21,                                     ! Day of Month
  7,                                      ! Month
  SummerDesignDay,                        ! Day Type
  0,                                      ! Daylight Saving Time Indicator
  Wetbulb,                                ! Humidity Indicating Type
  ,                                       ! Humidity Indicating Day Schedule Name
  DefaultMultipliers,                     ! Dry-Bulb Temperature Range Modifier Type
  ,                                       ! Dry-Bulb Temperature Range Modifier Schedule Name
  ASHRAETau,                              ! Solar Model Indicator
  ,                                       ! Beam Solar Day Schedule Name
  ,                                       ! Diffuse Solar Day Schedule Name
  0.51,                                   ! ASHRAE Taub {dimensionless}
  1.872;                                  ! ASHRAE Taud {dimensionless}

OS:ComponentData,
  {1680e752-4e4d-480d-af23-0eaf0c3d73af}, ! Handle
  Component Data 1,                       ! Name
  {b73d32e8-54ee-46e6-9b4a-d9d42384c7e5}, ! UUID
  {cbdcb281-6c81-4591-aa5f-64f83f038680}, ! Version UUID
  1366307671,                             ! Creation Timestamp
  1366307671,                             ! Version Timestamp
  {b33ccba0-c9c0-44f4-aea7-0302272d9a21}; ! Name of Object 1

