
OS:Version,
  {90d1a58f-e404-4818-938d-95206a77e337}, ! Handle
  0.9.3;                                  ! Version Identifier

OS:SizingPeriod:DesignDay,
  {f8749fcc-6c73-4c91-b24b-e8b5845bdc29}, ! Handle
  Birmingham Municipal Ap Ann Clg 1% Condns DP=>MDB, ! Name
  27.7,                                   ! Maximum Dry-Bulb Temperature {C}
  10.3,                                   ! Daily Dry-Bulb Temperature Range {deltaC}
  23.8,                                   ! Humidity Indicating Conditions at Maximum Dry-Bulb {BasedOnField A3}
  99075,                                  ! Barometric Pressure {Pa}
  3.5,                                    ! Wind Speed {m/s}
  330,                                    ! Wind Direction {deg}
  0,                                      ! Sky Clearness
  0,                                      ! Rain Indicator
  0,                                      ! Snow Indicator
  21,                                     ! Day of Month
  7,                                      ! Month
  SummerDesignDay,                        ! Day Type
  0,                                      ! Daylight Saving Time Indicator
  Dewpoint,                               ! Humidity Indicating Type
  ,                                       ! Humidity Indicating Day Schedule Name
  DefaultMultipliers,                     ! Dry-Bulb Temperature Range Modifier Type
  ,                                       ! Dry-Bulb Temperature Range Modifier Schedule Name
  ASHRAETau,                              ! Solar Model Indicator
  ,                                       ! Beam Solar Day Schedule Name
  ,                                       ! Diffuse Solar Day Schedule Name
  0.583,                                  ! ASHRAE Taub {dimensionless}
  1.723;                                  ! ASHRAE Taud {dimensionless}

OS:ComponentData,
  {ef449e55-ed5e-4187-a3b3-1ee6e47951ca}, ! Handle
  Component Data 1,                       ! Name
  {30d62742-fd83-4d60-9048-6e3ff048c904}, ! UUID
  {3584d81d-1552-4ab2-84b0-cb2b0cdd89fc}, ! Version UUID
  1366305649,                             ! Creation Timestamp
  1366305649,                             ! Version Timestamp
  {f8749fcc-6c73-4c91-b24b-e8b5845bdc29}; ! Name of Object 1

