
OS:Version,
  {bb37e364-aa4a-476e-82f1-beb10e994c04}, ! Handle
  0.9.3;                                  ! Version Identifier

OS:SizingPeriod:DesignDay,
  {9bc9ef1b-7bbd-4ef2-aa17-052baefad7f3}, ! Handle
  Fort Myers Page Field Ann Htg 99.6% Condns DB, ! Name
  5.8,                                    ! Maximum Dry-Bulb Temperature {C}
  0,                                      ! Daily Dry-Bulb Temperature Range {deltaC}
  5.8,                                    ! Humidity Indicating Conditions at Maximum Dry-Bulb {BasedOnField A3}
  101265,                                 ! Barometric Pressure {Pa}
  2.9,                                    ! Wind Speed {m/s}
  20,                                     ! Wind Direction {deg}
  0,                                      ! Sky Clearness
  0,                                      ! Rain Indicator
  0,                                      ! Snow Indicator
  21,                                     ! Day of Month
  1,                                      ! Month
  WinterDesignDay,                        ! Day Type
  0,                                      ! Daylight Saving Time Indicator
  Wetbulb,                                ! Humidity Indicating Type
  ,                                       ! Humidity Indicating Day Schedule Name
  DefaultMultipliers,                     ! Dry-Bulb Temperature Range Modifier Type
  ,                                       ! Dry-Bulb Temperature Range Modifier Schedule Name
  ASHRAEClearSky;                         ! Solar Model Indicator

OS:ComponentData,
  {749e3a79-d2e0-4ce7-9e62-35b013702ed7}, ! Handle
  Component Data 1,                       ! Name
  {fcf1f2a7-2f2b-4f97-83f8-258343a1e4e9}, ! UUID
  {03cf518d-526f-473b-a9f3-ea2c36d271da}, ! Version UUID
  1366306799,                             ! Creation Timestamp
  1366306799,                             ! Version Timestamp
  {9bc9ef1b-7bbd-4ef2-aa17-052baefad7f3}; ! Name of Object 1

