
OS:Version,
  {892a7256-320f-40b5-9eb9-cadd8d4a0345}, ! Handle
  0.9.3;                                  ! Version Identifier

OS:SizingPeriod:DesignDay,
  {af78c6d0-29ab-41f3-9da3-5e466fa01405}, ! Handle
  Ironwood  Awos Ann Clg 1% Condns Enth=>MDB, ! Name
  26.6,                                   ! Maximum Dry-Bulb Temperature {C}
  11.7,                                   ! Daily Dry-Bulb Temperature Range {deltaC}
  63200,                                  ! Humidity Indicating Conditions at Maximum Dry-Bulb {BasedOnField A3}
  96900,                                  ! Barometric Pressure {Pa}
  4.7,                                    ! Wind Speed {m/s}
  200,                                    ! Wind Direction {deg}
  0,                                      ! Sky Clearness
  0,                                      ! Rain Indicator
  0,                                      ! Snow Indicator
  21,                                     ! Day of Month
  7,                                      ! Month
  SummerDesignDay,                        ! Day Type
  0,                                      ! Daylight Saving Time Indicator
  Enthalpy,                               ! Humidity Indicating Type
  ,                                       ! Humidity Indicating Day Schedule Name
  DefaultMultipliers,                     ! Dry-Bulb Temperature Range Modifier Type
  ,                                       ! Dry-Bulb Temperature Range Modifier Schedule Name
  ASHRAETau,                              ! Solar Model Indicator
  ,                                       ! Beam Solar Day Schedule Name
  ,                                       ! Diffuse Solar Day Schedule Name
  0.402,                                  ! ASHRAE Taub {dimensionless}
  2.215;                                  ! ASHRAE Taud {dimensionless}

OS:ComponentData,
  {77305dbb-1a82-4bf5-980e-9629378a3bc9}, ! Handle
  Component Data 1,                       ! Name
  {b8d73f0d-f8a3-4e6b-b7da-4b6dffee88ab}, ! UUID
  {c0745c52-3aea-48dc-ab71-d85db396f863}, ! Version UUID
  1366308042,                             ! Creation Timestamp
  1366308042,                             ! Version Timestamp
  {af78c6d0-29ab-41f3-9da3-5e466fa01405}; ! Name of Object 1

