
OS:Version,
  {771e3423-8e8b-480c-979e-b2eea64fd255}, ! Handle
  0.9.3;                                  ! Version Identifier

OS:SizingPeriod:DesignDay,
  {69665827-f588-4677-bbdb-bf1b9f2e810a}, ! Handle
  KOTZEBUE Ann Clg 2% Condns WB=>MDB,     ! Name
  16,                                     ! Maximum Dry-Bulb Temperature {C}
  4.9,                                    ! Daily Dry-Bulb Temperature Range {deltaC}
  13.7,                                   ! Humidity Indicating Conditions at Maximum Dry-Bulb {BasedOnField A3}
  101265,                                 ! Barometric Pressure {Pa}
  4.7,                                    ! Wind Speed {m/s}
  300,                                    ! Wind Direction {deg}
  0,                                      ! Sky Clearness
  0,                                      ! Rain Indicator
  0,                                      ! Snow Indicator
  21,                                     ! Day of Month
  7,                                      ! Month
  SummerDesignDay,                        ! Day Type
  0,                                      ! Daylight Saving Time Indicator
  Wetbulb,                                ! Humidity Indicating Type
  ,                                       ! Humidity Indicating Day Schedule Name
  DefaultMultipliers,                     ! Dry-Bulb Temperature Range Modifier Type
  ,                                       ! Dry-Bulb Temperature Range Modifier Schedule Name
  ASHRAETau,                              ! Solar Model Indicator
  ,                                       ! Beam Solar Day Schedule Name
  ,                                       ! Diffuse Solar Day Schedule Name
  0.374,                                  ! ASHRAE Taub {dimensionless}
  2.244;                                  ! ASHRAE Taud {dimensionless}

OS:ComponentData,
  {140f5d58-6ef2-4f8f-b87d-03524b4be898}, ! Handle
  Component Data 1,                       ! Name
  {ce9ff842-874e-4e97-981c-482cabe39637}, ! UUID
  {a7fc2d5f-ff39-45c0-bd29-15477f49a452}, ! Version UUID
  1366305395,                             ! Creation Timestamp
  1366305395,                             ! Version Timestamp
  {69665827-f588-4677-bbdb-bf1b9f2e810a}; ! Name of Object 1

