
OS:Version,
  {0af10d3c-756f-4a83-85d2-b7aa0398cfe2}, ! Handle
  0.9.3;                                  ! Version Identifier

OS:SizingPeriod:DesignDay,
  {789be57c-317f-4105-9788-05013360732b}, ! Handle
  Amarillo International Ap  Ca Ann Clg 1% Condns WB=>MDB, ! Name
  29.6,                                   ! Maximum Dry-Bulb Temperature {C}
  13.8,                                   ! Daily Dry-Bulb Temperature Range {deltaC}
  21.1,                                   ! Humidity Indicating Conditions at Maximum Dry-Bulb {BasedOnField A3}
  89136,                                  ! Barometric Pressure {Pa}
  6.9,                                    ! Wind Speed {m/s}
  210,                                    ! Wind Direction {deg}
  0,                                      ! Sky Clearness
  0,                                      ! Rain Indicator
  0,                                      ! Snow Indicator
  21,                                     ! Day of Month
  7,                                      ! Month
  SummerDesignDay,                        ! Day Type
  0,                                      ! Daylight Saving Time Indicator
  Wetbulb,                                ! Humidity Indicating Type
  ,                                       ! Humidity Indicating Day Schedule Name
  DefaultMultipliers,                     ! Dry-Bulb Temperature Range Modifier Type
  ,                                       ! Dry-Bulb Temperature Range Modifier Schedule Name
  ASHRAETau,                              ! Solar Model Indicator
  ,                                       ! Beam Solar Day Schedule Name
  ,                                       ! Diffuse Solar Day Schedule Name
  0.414,                                  ! ASHRAE Taub {dimensionless}
  2.136;                                  ! ASHRAE Taud {dimensionless}

OS:ComponentData,
  {65f516a0-cb73-437b-8d28-71e0ca42136e}, ! Handle
  Component Data 1,                       ! Name
  {98fb0503-8bf5-4df2-ac4e-b09c623d786d}, ! UUID
  {155c681f-bccf-44e9-a111-c35373b9d5d4}, ! Version UUID
  1366310575,                             ! Creation Timestamp
  1366310575,                             ! Version Timestamp
  {789be57c-317f-4105-9788-05013360732b}; ! Name of Object 1

