
OS:Version,
  {46243c46-6eac-492a-8cf4-83052f48e0b8}, ! Handle
  0.9.3;                                  ! Version Identifier

OS:SizingPeriod:DesignDay,
  {43347895-b33a-4648-9287-940fe2fd0926}, ! Handle
  Barstow/Daggett Ann Clg 2% Condns DP=>MDB, ! Name
  31.7,                                   ! Maximum Dry-Bulb Temperature {C}
  16.6,                                   ! Daily Dry-Bulb Temperature Range {deltaC}
  15.1,                                   ! Humidity Indicating Conditions at Maximum Dry-Bulb {BasedOnField A3}
  94469,                                  ! Barometric Pressure {Pa}
  4.8,                                    ! Wind Speed {m/s}
  290,                                    ! Wind Direction {deg}
  0,                                      ! Sky Clearness
  0,                                      ! Rain Indicator
  0,                                      ! Snow Indicator
  21,                                     ! Day of Month
  7,                                      ! Month
  SummerDesignDay,                        ! Day Type
  0,                                      ! Daylight Saving Time Indicator
  Dewpoint,                               ! Humidity Indicating Type
  ,                                       ! Humidity Indicating Day Schedule Name
  DefaultMultipliers,                     ! Dry-Bulb Temperature Range Modifier Type
  ,                                       ! Dry-Bulb Temperature Range Modifier Schedule Name
  ASHRAETau,                              ! Solar Model Indicator
  ,                                       ! Beam Solar Day Schedule Name
  ,                                       ! Diffuse Solar Day Schedule Name
  0.497,                                  ! ASHRAE Taub {dimensionless}
  1.821;                                  ! ASHRAE Taud {dimensionless}

OS:ComponentData,
  {b97e1cf9-f1bc-43ce-8f0e-70251295dda5}, ! Handle
  Component Data 1,                       ! Name
  {f5e81db2-4d1f-478c-8f81-56d7d58b0708}, ! UUID
  {85a89271-4c18-4d0f-88b0-fbd48c892f88}, ! Version UUID
  1366306374,                             ! Creation Timestamp
  1366306374,                             ! Version Timestamp
  {43347895-b33a-4648-9287-940fe2fd0926}; ! Name of Object 1

