
OS:Version,
  {19be5066-bf0d-4b2a-9723-c6f6ca1b5c71}, ! Handle
  0.9.3;                                  ! Version Identifier

OS:SizingPeriod:DesignDay,
  {c7e99438-aa43-468d-8d60-77469d7cc920}, ! Handle
  HONOLULU Ann Clg 2% Condns DB=>MWB,     ! Name
  31.2,                                   ! Maximum Dry-Bulb Temperature {C}
  7.1,                                    ! Daily Dry-Bulb Temperature Range {deltaC}
  23,                                     ! Humidity Indicating Conditions at Maximum Dry-Bulb {BasedOnField A3}
  101265,                                 ! Barometric Pressure {Pa}
  6.7,                                    ! Wind Speed {m/s}
  60,                                     ! Wind Direction {deg}
  0,                                      ! Sky Clearness
  0,                                      ! Rain Indicator
  0,                                      ! Snow Indicator
  21,                                     ! Day of Month
  8,                                      ! Month
  SummerDesignDay,                        ! Day Type
  0,                                      ! Daylight Saving Time Indicator
  Wetbulb,                                ! Humidity Indicating Type
  ,                                       ! Humidity Indicating Day Schedule Name
  DefaultMultipliers,                     ! Dry-Bulb Temperature Range Modifier Type
  ,                                       ! Dry-Bulb Temperature Range Modifier Schedule Name
  ASHRAETau,                              ! Solar Model Indicator
  ,                                       ! Beam Solar Day Schedule Name
  ,                                       ! Diffuse Solar Day Schedule Name
  0.382,                                  ! ASHRAE Taub {dimensionless}
  2.521;                                  ! ASHRAE Taud {dimensionless}

OS:ComponentData,
  {873849a2-fe0c-40f8-8095-1509a1c12391}, ! Handle
  Component Data 1,                       ! Name
  {812e374d-bc98-4741-b3e7-41bdc0e273a9}, ! UUID
  {04100452-4de7-4109-b723-0acfeb99a890}, ! Version UUID
  1366307087,                             ! Creation Timestamp
  1366307087,                             ! Version Timestamp
  {c7e99438-aa43-468d-8d60-77469d7cc920}; ! Name of Object 1

