
OS:Version,
  {72548c3b-583d-4926-82c3-a531b17ea9d6}, ! Handle
  0.9.3;                                  ! Version Identifier

OS:SizingPeriod:DesignDay,
  {ab5fcb3a-462a-4a70-b186-34a05cc22802}, ! Handle
  Crookston Muni Fld Ann Hum_n 99.6% Condns DP=>MCDB, ! Name
  -31.8,                                  ! Maximum Dry-Bulb Temperature {C}
  0,                                      ! Daily Dry-Bulb Temperature Range {deltaC}
  -36.1,                                  ! Humidity Indicating Conditions at Maximum Dry-Bulb {BasedOnField A3}
  98088,                                  ! Barometric Pressure {Pa}
  2.9,                                    ! Wind Speed {m/s}
  170,                                    ! Wind Direction {deg}
  0,                                      ! Sky Clearness
  0,                                      ! Rain Indicator
  0,                                      ! Snow Indicator
  21,                                     ! Day of Month
  1,                                      ! Month
  WinterDesignDay,                        ! Day Type
  0,                                      ! Daylight Saving Time Indicator
  Dewpoint,                               ! Humidity Indicating Type
  ,                                       ! Humidity Indicating Day Schedule Name
  DefaultMultipliers,                     ! Dry-Bulb Temperature Range Modifier Type
  ,                                       ! Dry-Bulb Temperature Range Modifier Schedule Name
  ASHRAEClearSky;                         ! Solar Model Indicator

OS:ComponentData,
  {5000aa76-212d-45e2-ad42-e659e8495184}, ! Handle
  Component Data 1,                       ! Name
  {0dd68a75-0e6b-42e9-bc3b-ef78a40848bf}, ! UUID
  {c506f4dc-25c4-4c5b-86da-451d8e5abd4a}, ! Version UUID
  1366308189,                             ! Creation Timestamp
  1366308189,                             ! Version Timestamp
  {ab5fcb3a-462a-4a70-b186-34a05cc22802}; ! Name of Object 1

