
OS:Version,
  {04b9f9dc-61a3-47d2-835e-6144edfc1e72}, ! Handle
  0.9.3;                                  ! Version Identifier

OS:SizingPeriod:DesignDay,
  {81f47735-ff40-4319-b3f7-6b70d5c47d10}, ! Handle
  BETTLES Ann Htg Wind 99.6% Condns WS=>MCDB, ! Name
  -13.1,                                  ! Maximum Dry-Bulb Temperature {C}
  0,                                      ! Daily Dry-Bulb Temperature Range {deltaC}
  -13.1,                                  ! Humidity Indicating Conditions at Maximum Dry-Bulb {BasedOnField A3}
  98886,                                  ! Barometric Pressure {Pa}
  9.1,                                    ! Wind Speed {m/s}
  340,                                    ! Wind Direction {deg}
  0,                                      ! Sky Clearness
  0,                                      ! Rain Indicator
  0,                                      ! Snow Indicator
  21,                                     ! Day of Month
  1,                                      ! Month
  WinterDesignDay,                        ! Day Type
  0,                                      ! Daylight Saving Time Indicator
  Wetbulb,                                ! Humidity Indicating Type
  ,                                       ! Humidity Indicating Day Schedule Name
  DefaultMultipliers,                     ! Dry-Bulb Temperature Range Modifier Type
  ,                                       ! Dry-Bulb Temperature Range Modifier Schedule Name
  ASHRAEClearSky;                         ! Solar Model Indicator

OS:ComponentData,
  {ef9bdf69-651f-44f8-a53c-32048871c26a}, ! Handle
  Component Data 1,                       ! Name
  {5d10c0e3-90df-43f5-82e4-7453497f373e}, ! UUID
  {5a6c1a6f-fdbb-42ae-978a-9d11bd0465d2}, ! Version UUID
  1366304761,                             ! Creation Timestamp
  1366304761,                             ! Version Timestamp
  {81f47735-ff40-4319-b3f7-6b70d5c47d10}; ! Name of Object 1

