
OS:Version,
  {e0f41342-935b-4078-ad17-1bcbb7707915}, ! Handle
  0.9.3;                                  ! Version Identifier

OS:SizingPeriod:DesignDay,
  {7ee4857c-f1c5-4dde-8435-be4117dd0b3b}, ! Handle
  Cape May Co Ann Clg 1% Condns WB=>MDB,  ! Name
  28.6,                                   ! Maximum Dry-Bulb Temperature {C}
  8.1,                                    ! Daily Dry-Bulb Temperature Range {deltaC}
  24.5,                                   ! Humidity Indicating Conditions at Maximum Dry-Bulb {BasedOnField A3}
  101241,                                 ! Barometric Pressure {Pa}
  4.4,                                    ! Wind Speed {m/s}
  240,                                    ! Wind Direction {deg}
  0,                                      ! Sky Clearness
  0,                                      ! Rain Indicator
  0,                                      ! Snow Indicator
  21,                                     ! Day of Month
  7,                                      ! Month
  SummerDesignDay,                        ! Day Type
  0,                                      ! Daylight Saving Time Indicator
  Wetbulb,                                ! Humidity Indicating Type
  ,                                       ! Humidity Indicating Day Schedule Name
  DefaultMultipliers,                     ! Dry-Bulb Temperature Range Modifier Type
  ,                                       ! Dry-Bulb Temperature Range Modifier Schedule Name
  ASHRAETau,                              ! Solar Model Indicator
  ,                                       ! Beam Solar Day Schedule Name
  ,                                       ! Diffuse Solar Day Schedule Name
  0.564,                                  ! ASHRAE Taub {dimensionless}
  1.76;                                   ! ASHRAE Taud {dimensionless}

OS:ComponentData,
  {a0c6a174-55c3-48c8-9fbf-c92caad1e48a}, ! Handle
  Component Data 1,                       ! Name
  {7ebadeaf-5067-4e29-af8f-f11ab7367a10}, ! UUID
  {0ab2076e-5695-4551-b2fc-4f7a1fe981f0}, ! Version UUID
  1366309303,                             ! Creation Timestamp
  1366309303,                             ! Version Timestamp
  {7ee4857c-f1c5-4dde-8435-be4117dd0b3b}; ! Name of Object 1

