
OS:Version,
  {9d1996f3-767b-4d07-a0fd-26d698008d12}, ! Handle
  0.9.3;                                  ! Version Identifier

OS:SizingPeriod:DesignDay,
  {18f19a7c-983a-4dc5-983f-d74be0bc5330}, ! Handle
  Asheville Ann Clg .4% Condns DB=>MWB,   ! Name
  31.2,                                   ! Maximum Dry-Bulb Temperature {C}
  10.7,                                   ! Daily Dry-Bulb Temperature Range {deltaC}
  22,                                     ! Humidity Indicating Conditions at Maximum Dry-Bulb {BasedOnField A3}
  93632,                                  ! Barometric Pressure {Pa}
  3.8,                                    ! Wind Speed {m/s}
  340,                                    ! Wind Direction {deg}
  0,                                      ! Sky Clearness
  0,                                      ! Rain Indicator
  0,                                      ! Snow Indicator
  21,                                     ! Day of Month
  7,                                      ! Month
  SummerDesignDay,                        ! Day Type
  0,                                      ! Daylight Saving Time Indicator
  Wetbulb,                                ! Humidity Indicating Type
  ,                                       ! Humidity Indicating Day Schedule Name
  DefaultMultipliers,                     ! Dry-Bulb Temperature Range Modifier Type
  ,                                       ! Dry-Bulb Temperature Range Modifier Schedule Name
  ASHRAETau,                              ! Solar Model Indicator
  ,                                       ! Beam Solar Day Schedule Name
  ,                                       ! Diffuse Solar Day Schedule Name
  0.517,                                  ! ASHRAE Taub {dimensionless}
  1.849;                                  ! ASHRAE Taud {dimensionless}

OS:ComponentData,
  {377f5fec-c78d-4b0d-98e8-92b1598eed7d}, ! Handle
  Component Data 1,                       ! Name
  {775c26c6-6b2f-4c20-a77a-3cc106faceee}, ! UUID
  {e3ae7993-cff9-4326-b93e-e027f886dc28}, ! Version UUID
  1366308864,                             ! Creation Timestamp
  1366308864,                             ! Version Timestamp
  {18f19a7c-983a-4dc5-983f-d74be0bc5330}; ! Name of Object 1

