
OS:Version,
  {f07e31a0-7788-40d8-b5b9-d5f36cefc783}, ! Handle
  0.9.3;                                  ! Version Identifier

OS:SizingPeriod:DesignDay,
  {fac0d832-2177-49ed-9efe-4b46f0738fe7}, ! Handle
  Cincinnati Municipal Ap Lunki Ann Clg .4% Condns DP=>MDB, ! Name
  28.1,                                   ! Maximum Dry-Bulb Temperature {C}
  11,                                     ! Daily Dry-Bulb Temperature Range {deltaC}
  23.9,                                   ! Humidity Indicating Conditions at Maximum Dry-Bulb {BasedOnField A3}
  99548,                                  ! Barometric Pressure {Pa}
  4.3,                                    ! Wind Speed {m/s}
  240,                                    ! Wind Direction {deg}
  0,                                      ! Sky Clearness
  0,                                      ! Rain Indicator
  0,                                      ! Snow Indicator
  21,                                     ! Day of Month
  7,                                      ! Month
  SummerDesignDay,                        ! Day Type
  0,                                      ! Daylight Saving Time Indicator
  Dewpoint,                               ! Humidity Indicating Type
  ,                                       ! Humidity Indicating Day Schedule Name
  DefaultMultipliers,                     ! Dry-Bulb Temperature Range Modifier Type
  ,                                       ! Dry-Bulb Temperature Range Modifier Schedule Name
  ASHRAETau,                              ! Solar Model Indicator
  ,                                       ! Beam Solar Day Schedule Name
  ,                                       ! Diffuse Solar Day Schedule Name
  0.505,                                  ! ASHRAE Taub {dimensionless}
  1.887;                                  ! ASHRAE Taud {dimensionless}

OS:ComponentData,
  {9640a1aa-a6fa-4531-b61c-22f907da2120}, ! Handle
  Component Data 1,                       ! Name
  {d4f0ddfc-0a2b-480c-be46-b9526f510b9c}, ! UUID
  {ac5908df-2165-4426-b66e-ca19413d0228}, ! Version UUID
  1366309776,                             ! Creation Timestamp
  1366309776,                             ! Version Timestamp
  {fac0d832-2177-49ed-9efe-4b46f0738fe7}; ! Name of Object 1

