
OS:Version,
  {a9a11e5b-10ae-403a-aaf5-1bf9e4a95f8a}, ! Handle
  0.9.3;                                  ! Version Identifier

OS:SizingPeriod:DesignDay,
  {d01b7483-bcbe-4047-8ea1-274bb0f5c1cc}, ! Handle
  Greer GreenvL Spartanbrg Ap Ann Clg 1% Condns WB=>MDB, ! Name
  30.2,                                   ! Maximum Dry-Bulb Temperature {C}
  10.6,                                   ! Daily Dry-Bulb Temperature Range {deltaC}
  24.4,                                   ! Humidity Indicating Conditions at Maximum Dry-Bulb {BasedOnField A3}
  97866,                                  ! Barometric Pressure {Pa}
  3.6,                                    ! Wind Speed {m/s}
  230,                                    ! Wind Direction {deg}
  0,                                      ! Sky Clearness
  0,                                      ! Rain Indicator
  0,                                      ! Snow Indicator
  21,                                     ! Day of Month
  7,                                      ! Month
  SummerDesignDay,                        ! Day Type
  0,                                      ! Daylight Saving Time Indicator
  Wetbulb,                                ! Humidity Indicating Type
  ,                                       ! Humidity Indicating Day Schedule Name
  DefaultMultipliers,                     ! Dry-Bulb Temperature Range Modifier Type
  ,                                       ! Dry-Bulb Temperature Range Modifier Schedule Name
  ASHRAETau,                              ! Solar Model Indicator
  ,                                       ! Beam Solar Day Schedule Name
  ,                                       ! Diffuse Solar Day Schedule Name
  0.545,                                  ! ASHRAE Taub {dimensionless}
  1.796;                                  ! ASHRAE Taud {dimensionless}

OS:ComponentData,
  {8ccc860e-15f5-4b2c-855c-1af79ad25324}, ! Handle
  Component Data 1,                       ! Name
  {b4f00e95-907a-4c6a-9772-153eb06a096c}, ! UUID
  {3d236363-742c-4000-8d58-4af0cbe01aae}, ! Version UUID
  1366310368,                             ! Creation Timestamp
  1366310368,                             ! Version Timestamp
  {d01b7483-bcbe-4047-8ea1-274bb0f5c1cc}; ! Name of Object 1

