
OS:Version,
  {c5e39798-167d-44cb-8f04-7f0661a38fea}, ! Handle
  0.9.3;                                  ! Version Identifier

OS:SizingPeriod:DesignDay,
  {d1f32b0e-508c-4f8c-9f55-41d345f10422}, ! Handle
  Chattanooga Ann Hum_n 99% Condns DP=>MCDB, ! Name
  -1.5,                                   ! Maximum Dry-Bulb Temperature {C}
  0,                                      ! Daily Dry-Bulb Temperature Range {deltaC}
  -13.1,                                  ! Humidity Indicating Conditions at Maximum Dry-Bulb {BasedOnField A3}
  98828,                                  ! Barometric Pressure {Pa}
  2.9,                                    ! Wind Speed {m/s}
  0,                                      ! Wind Direction {deg}
  0,                                      ! Sky Clearness
  0,                                      ! Rain Indicator
  0,                                      ! Snow Indicator
  21,                                     ! Day of Month
  1,                                      ! Month
  WinterDesignDay,                        ! Day Type
  0,                                      ! Daylight Saving Time Indicator
  Dewpoint,                               ! Humidity Indicating Type
  ,                                       ! Humidity Indicating Day Schedule Name
  DefaultMultipliers,                     ! Dry-Bulb Temperature Range Modifier Type
  ,                                       ! Dry-Bulb Temperature Range Modifier Schedule Name
  ASHRAEClearSky;                         ! Solar Model Indicator

OS:ComponentData,
  {86b54758-411b-4e6d-9d2e-7869b279fa25}, ! Handle
  Component Data 1,                       ! Name
  {a1cf7d65-4e32-4d5e-8603-5b03c78d87d6}, ! UUID
  {a6555d55-5c0c-4333-849f-5b3f0a327dfe}, ! Version UUID
  1366310484,                             ! Creation Timestamp
  1366310484,                             ! Version Timestamp
  {d1f32b0e-508c-4f8c-9f55-41d345f10422}; ! Name of Object 1

