
OS:Version,
  {925407a4-3c2a-441e-b4b4-cc099fce1f03}, ! Handle
  0.9.3;                                  ! Version Identifier

OS:SizingPeriod:DesignDay,
  {d94c5000-c849-4ea1-9f79-87e3e745504e}, ! Handle
  Blue Canyon Ap Ann Htg Wind 99% Condns WS=>MCDB, ! Name
  2,                                      ! Maximum Dry-Bulb Temperature {C}
  0,                                      ! Daily Dry-Bulb Temperature Range {deltaC}
  2,                                      ! Humidity Indicating Conditions at Maximum Dry-Bulb {BasedOnField A3}
  83431,                                  ! Barometric Pressure {Pa}
  9,                                      ! Wind Speed {m/s}
  60,                                     ! Wind Direction {deg}
  0,                                      ! Sky Clearness
  0,                                      ! Rain Indicator
  0,                                      ! Snow Indicator
  21,                                     ! Day of Month
  2,                                      ! Month
  WinterDesignDay,                        ! Day Type
  0,                                      ! Daylight Saving Time Indicator
  Wetbulb,                                ! Humidity Indicating Type
  ,                                       ! Humidity Indicating Day Schedule Name
  DefaultMultipliers,                     ! Dry-Bulb Temperature Range Modifier Type
  ,                                       ! Dry-Bulb Temperature Range Modifier Schedule Name
  ASHRAEClearSky;                         ! Solar Model Indicator

OS:ComponentData,
  {fcce326d-716e-4ca1-b489-ef35019da25e}, ! Handle
  Component Data 1,                       ! Name
  {13f4a3d1-cabe-453f-9ddc-39ce5b98ec12}, ! UUID
  {04faf913-b8d8-455b-9b18-964654b7841a}, ! Version UUID
  1366306386,                             ! Creation Timestamp
  1366306386,                             ! Version Timestamp
  {d94c5000-c849-4ea1-9f79-87e3e745504e}; ! Name of Object 1

