
OS:Version,
  {265204ca-4253-4a41-9bbd-c098313a3911}, ! Handle
  0.9.3;                                  ! Version Identifier

OS:SizingPeriod:DesignDay,
  {77efdb83-b54d-410f-b1e3-7a62f2d9f4b4}, ! Handle
  Albuquerque Ann Htg Wind 99.6% Condns WS=>MCDB, ! Name
  0.9,                                    ! Maximum Dry-Bulb Temperature {C}
  0,                                      ! Daily Dry-Bulb Temperature Range {deltaC}
  0.9,                                    ! Humidity Indicating Conditions at Maximum Dry-Bulb {BasedOnField A3}
  83318,                                  ! Barometric Pressure {Pa}
  14.6,                                   ! Wind Speed {m/s}
  0,                                      ! Wind Direction {deg}
  0,                                      ! Sky Clearness
  0,                                      ! Rain Indicator
  0,                                      ! Snow Indicator
  21,                                     ! Day of Month
  12,                                     ! Month
  WinterDesignDay,                        ! Day Type
  0,                                      ! Daylight Saving Time Indicator
  Wetbulb,                                ! Humidity Indicating Type
  ,                                       ! Humidity Indicating Day Schedule Name
  DefaultMultipliers,                     ! Dry-Bulb Temperature Range Modifier Type
  ,                                       ! Dry-Bulb Temperature Range Modifier Schedule Name
  ASHRAEClearSky;                         ! Solar Model Indicator

OS:ComponentData,
  {d6a71376-94ea-45e5-8dea-155737716ab9}, ! Handle
  Component Data 1,                       ! Name
  {7aa29520-c813-4160-bffb-0f79ccd46b9d}, ! UUID
  {a6335bd1-d424-4aea-a4b3-83fdc2b57635}, ! Version UUID
  1366309362,                             ! Creation Timestamp
  1366309362,                             ! Version Timestamp
  {77efdb83-b54d-410f-b1e3-7a62f2d9f4b4}; ! Name of Object 1

