
OS:Version,
  {1b78b338-3a52-4237-9e94-ea0f4a4152c2}, ! Handle
  0.9.3;                                  ! Version Identifier

OS:SizingPeriod:DesignDay,
  {58992e0b-71ab-414d-a144-5d0926d8a1a0}, ! Handle
  Bradford Regional Ap Ann Clg 1% Condns DB=>MWB, ! Name
  27.2,                                   ! Maximum Dry-Bulb Temperature {C}
  11.9,                                   ! Daily Dry-Bulb Temperature Range {deltaC}
  19.7,                                   ! Humidity Indicating Conditions at Maximum Dry-Bulb {BasedOnField A3}
  93813,                                  ! Barometric Pressure {Pa}
  4.1,                                    ! Wind Speed {m/s}
  270,                                    ! Wind Direction {deg}
  0,                                      ! Sky Clearness
  0,                                      ! Rain Indicator
  0,                                      ! Snow Indicator
  21,                                     ! Day of Month
  7,                                      ! Month
  SummerDesignDay,                        ! Day Type
  0,                                      ! Daylight Saving Time Indicator
  Wetbulb,                                ! Humidity Indicating Type
  ,                                       ! Humidity Indicating Day Schedule Name
  DefaultMultipliers,                     ! Dry-Bulb Temperature Range Modifier Type
  ,                                       ! Dry-Bulb Temperature Range Modifier Schedule Name
  ASHRAETau,                              ! Solar Model Indicator
  ,                                       ! Beam Solar Day Schedule Name
  ,                                       ! Diffuse Solar Day Schedule Name
  0.423,                                  ! ASHRAE Taub {dimensionless}
  2.114;                                  ! ASHRAE Taud {dimensionless}

OS:ComponentData,
  {91571aba-972f-4fc6-894b-af2b678150c9}, ! Handle
  Component Data 1,                       ! Name
  {9a22a5a9-6d14-44ed-ae34-d3001fa3319b}, ! UUID
  {7b63e42b-19cf-453f-b10e-e830392ad969}, ! Version UUID
  1366310149,                             ! Creation Timestamp
  1366310149,                             ! Version Timestamp
  {58992e0b-71ab-414d-a144-5d0926d8a1a0}; ! Name of Object 1

