
OS:Version,
  {170f3199-863e-49d6-89a4-4a395daced4d}, ! Handle
  0.9.3;                                  ! Version Identifier

OS:SizingPeriod:DesignDay,
  {bb17fd06-f285-4a62-813b-c938781197bd}, ! Handle
  Charleston Yeager Arpt Ann Clg .4% Condns DB=>MWB, ! Name
  32.9,                                   ! Maximum Dry-Bulb Temperature {C}
  10.7,                                   ! Daily Dry-Bulb Temperature Range {deltaC}
  23,                                     ! Humidity Indicating Conditions at Maximum Dry-Bulb {BasedOnField A3}
  97656,                                  ! Barometric Pressure {Pa}
  2.9,                                    ! Wind Speed {m/s}
  240,                                    ! Wind Direction {deg}
  0,                                      ! Sky Clearness
  0,                                      ! Rain Indicator
  0,                                      ! Snow Indicator
  21,                                     ! Day of Month
  7,                                      ! Month
  SummerDesignDay,                        ! Day Type
  0,                                      ! Daylight Saving Time Indicator
  Wetbulb,                                ! Humidity Indicating Type
  ,                                       ! Humidity Indicating Day Schedule Name
  DefaultMultipliers,                     ! Dry-Bulb Temperature Range Modifier Type
  ,                                       ! Dry-Bulb Temperature Range Modifier Schedule Name
  ASHRAETau,                              ! Solar Model Indicator
  ,                                       ! Beam Solar Day Schedule Name
  ,                                       ! Diffuse Solar Day Schedule Name
  0.513,                                  ! ASHRAE Taub {dimensionless}
  1.859;                                  ! ASHRAE Taud {dimensionless}

OS:ComponentData,
  {b5710c02-fc31-49ea-92a9-b028bbaf07e0}, ! Handle
  Component Data 1,                       ! Name
  {231cc1f9-95b4-44df-9353-a14eebb0ea53}, ! UUID
  {6f3dae90-6a8e-472c-9c80-02108f021dce}, ! Version UUID
  1366311624,                             ! Creation Timestamp
  1366311624,                             ! Version Timestamp
  {bb17fd06-f285-4a62-813b-c938781197bd}; ! Name of Object 1

