
OS:Version,
  {f472fcf6-2291-4961-8a7e-d4d46b214771}, ! Handle
  0.9.3;                                  ! Version Identifier

OS:SizingPeriod:DesignDay,
  {8ea57392-0656-4193-bbf0-3d2f92366edc}, ! Handle
  Chippewa Co Intl Ann Htg Wind 99% Condns WS=>MCDB, ! Name
  -5.6,                                   ! Maximum Dry-Bulb Temperature {C}
  0,                                      ! Daily Dry-Bulb Temperature Range {deltaC}
  -5.6,                                   ! Humidity Indicating Conditions at Maximum Dry-Bulb {BasedOnField A3}
  98358,                                  ! Barometric Pressure {Pa}
  10.8,                                   ! Wind Speed {m/s}
  80,                                     ! Wind Direction {deg}
  0,                                      ! Sky Clearness
  0,                                      ! Rain Indicator
  0,                                      ! Snow Indicator
  21,                                     ! Day of Month
  1,                                      ! Month
  WinterDesignDay,                        ! Day Type
  0,                                      ! Daylight Saving Time Indicator
  Wetbulb,                                ! Humidity Indicating Type
  ,                                       ! Humidity Indicating Day Schedule Name
  DefaultMultipliers,                     ! Dry-Bulb Temperature Range Modifier Type
  ,                                       ! Dry-Bulb Temperature Range Modifier Schedule Name
  ASHRAEClearSky;                         ! Solar Model Indicator

OS:ComponentData,
  {ac9bf6fc-777d-455a-95d3-9ac330f0fecc}, ! Handle
  Component Data 1,                       ! Name
  {6811c6f3-6fab-4079-9d29-30b154d99eb3}, ! UUID
  {55ff6624-ff22-47fd-98be-e7278066f9e8}, ! Version UUID
  1366307967,                             ! Creation Timestamp
  1366307967,                             ! Version Timestamp
  {8ea57392-0656-4193-bbf0-3d2f92366edc}; ! Name of Object 1

