
OS:Version,
  {01ff5e5e-6506-4503-95a6-c488e37c1cc2}, ! Handle
  0.9.3;                                  ! Version Identifier

OS:SizingPeriod:DesignDay,
  {333c5169-b231-419f-bf93-33b205cf3530}, ! Handle
  CUT_BANK Ann Clg 1% Condns DP=>MDB,     ! Name
  18.8,                                   ! Maximum Dry-Bulb Temperature {C}
  15.1,                                   ! Daily Dry-Bulb Temperature Range {deltaC}
  12,                                     ! Humidity Indicating Conditions at Maximum Dry-Bulb {BasedOnField A3}
  88037,                                  ! Barometric Pressure {Pa}
  5.8,                                    ! Wind Speed {m/s}
  260,                                    ! Wind Direction {deg}
  0,                                      ! Sky Clearness
  0,                                      ! Rain Indicator
  0,                                      ! Snow Indicator
  21,                                     ! Day of Month
  7,                                      ! Month
  SummerDesignDay,                        ! Day Type
  0,                                      ! Daylight Saving Time Indicator
  Dewpoint,                               ! Humidity Indicating Type
  ,                                       ! Humidity Indicating Day Schedule Name
  DefaultMultipliers,                     ! Dry-Bulb Temperature Range Modifier Type
  ,                                       ! Dry-Bulb Temperature Range Modifier Schedule Name
  ASHRAETau,                              ! Solar Model Indicator
  ,                                       ! Beam Solar Day Schedule Name
  ,                                       ! Diffuse Solar Day Schedule Name
  0.368,                                  ! ASHRAE Taub {dimensionless}
  2.249;                                  ! ASHRAE Taud {dimensionless}

OS:ComponentData,
  {e4d0a37e-a6e6-4943-84c3-79e55581ec06}, ! Handle
  Component Data 1,                       ! Name
  {a3c48cf9-c005-47de-959d-636f501e34c3}, ! UUID
  {0bb5ea50-84e4-43d7-b692-f62abe5079de}, ! Version UUID
  1366308736,                             ! Creation Timestamp
  1366308736,                             ! Version Timestamp
  {333c5169-b231-419f-bf93-33b205cf3530}; ! Name of Object 1

