
OS:Version,
  {5097e634-16a2-44ac-9386-d84570ffe6b7}, ! Handle
  0.9.3;                                  ! Version Identifier

OS:SizingPeriod:DesignDay,
  {a9e25901-1f71-400d-b89b-b1cc7931c27e}, ! Handle
  Decatur Ann Htg Wind 99% Condns WS=>MCDB, ! Name
  -1.7,                                   ! Maximum Dry-Bulb Temperature {C}
  0,                                      ! Daily Dry-Bulb Temperature Range {deltaC}
  -1.7,                                   ! Humidity Indicating Conditions at Maximum Dry-Bulb {BasedOnField A3}
  98792,                                  ! Barometric Pressure {Pa}
  11.7,                                   ! Wind Speed {m/s}
  300,                                    ! Wind Direction {deg}
  0,                                      ! Sky Clearness
  0,                                      ! Rain Indicator
  0,                                      ! Snow Indicator
  21,                                     ! Day of Month
  1,                                      ! Month
  WinterDesignDay,                        ! Day Type
  0,                                      ! Daylight Saving Time Indicator
  Wetbulb,                                ! Humidity Indicating Type
  ,                                       ! Humidity Indicating Day Schedule Name
  DefaultMultipliers,                     ! Dry-Bulb Temperature Range Modifier Type
  ,                                       ! Dry-Bulb Temperature Range Modifier Schedule Name
  ASHRAEClearSky;                         ! Solar Model Indicator

OS:ComponentData,
  {d0c99fde-9b5c-4a18-adb6-de71a5a2446d}, ! Handle
  Component Data 1,                       ! Name
  {d3ef5827-56ae-470b-93bd-ffab21bfc981}, ! UUID
  {78f7b2a2-b755-4622-a0d2-a30f11a8f0c4}, ! Version UUID
  1366307354,                             ! Creation Timestamp
  1366307354,                             ! Version Timestamp
  {a9e25901-1f71-400d-b89b-b1cc7931c27e}; ! Name of Object 1

