
OS:Version,
  {12b4dc13-d7dc-4a45-aa42-f0e66438a737}, ! Handle
  0.9.3;                                  ! Version Identifier

OS:SizingPeriod:DesignDay,
  {56b48911-73d7-4417-abf5-75ab0ec7197d}, ! Handle
  Charles City Ann Clg 1% Condns WB=>MDB, ! Name
  29.3,                                   ! Maximum Dry-Bulb Temperature {C}
  10.4,                                   ! Daily Dry-Bulb Temperature Range {deltaC}
  25.6,                                   ! Humidity Indicating Conditions at Maximum Dry-Bulb {BasedOnField A3}
  97272,                                  ! Barometric Pressure {Pa}
  5.1,                                    ! Wind Speed {m/s}
  190,                                    ! Wind Direction {deg}
  0,                                      ! Sky Clearness
  0,                                      ! Rain Indicator
  0,                                      ! Snow Indicator
  21,                                     ! Day of Month
  7,                                      ! Month
  SummerDesignDay,                        ! Day Type
  0,                                      ! Daylight Saving Time Indicator
  Wetbulb,                                ! Humidity Indicating Type
  ,                                       ! Humidity Indicating Day Schedule Name
  DefaultMultipliers,                     ! Dry-Bulb Temperature Range Modifier Type
  ,                                       ! Dry-Bulb Temperature Range Modifier Schedule Name
  ASHRAETau,                              ! Solar Model Indicator
  ,                                       ! Beam Solar Day Schedule Name
  ,                                       ! Diffuse Solar Day Schedule Name
  0.414,                                  ! ASHRAE Taub {dimensionless}
  2.191;                                  ! ASHRAE Taud {dimensionless}

OS:ComponentData,
  {fd0a4aaa-74a1-4230-a7fa-2387f0feee75}, ! Handle
  Component Data 1,                       ! Name
  {2bae5688-8ec0-428c-b0d3-2693c7fed131}, ! UUID
  {9e0837fd-13d5-471f-82b5-379dc78045af}, ! Version UUID
  1366307155,                             ! Creation Timestamp
  1366307155,                             ! Version Timestamp
  {56b48911-73d7-4417-abf5-75ab0ec7197d}; ! Name of Object 1

