
OS:Version,
  {ac43066b-f942-4ff9-814b-996b9bb7bd9a}, ! Handle
  0.9.3;                                  ! Version Identifier

OS:SizingPeriod:DesignDay,
  {bf0701f3-e8c5-4365-a66a-9c0b66d7cefa}, ! Handle
  Charles City Ann Clg .4% Condns DB=>MWB, ! Name
  32.4,                                   ! Maximum Dry-Bulb Temperature {C}
  10.4,                                   ! Daily Dry-Bulb Temperature Range {deltaC}
  24.9,                                   ! Humidity Indicating Conditions at Maximum Dry-Bulb {BasedOnField A3}
  97272,                                  ! Barometric Pressure {Pa}
  5.1,                                    ! Wind Speed {m/s}
  190,                                    ! Wind Direction {deg}
  0,                                      ! Sky Clearness
  0,                                      ! Rain Indicator
  0,                                      ! Snow Indicator
  21,                                     ! Day of Month
  7,                                      ! Month
  SummerDesignDay,                        ! Day Type
  0,                                      ! Daylight Saving Time Indicator
  Wetbulb,                                ! Humidity Indicating Type
  ,                                       ! Humidity Indicating Day Schedule Name
  DefaultMultipliers,                     ! Dry-Bulb Temperature Range Modifier Type
  ,                                       ! Dry-Bulb Temperature Range Modifier Schedule Name
  ASHRAETau,                              ! Solar Model Indicator
  ,                                       ! Beam Solar Day Schedule Name
  ,                                       ! Diffuse Solar Day Schedule Name
  0.414,                                  ! ASHRAE Taub {dimensionless}
  2.191;                                  ! ASHRAE Taud {dimensionless}

OS:ComponentData,
  {2262021c-0a22-49ba-9b7c-c36c7fecf9d9}, ! Handle
  Component Data 1,                       ! Name
  {898d2862-b183-4434-80ee-e8e96c474a59}, ! UUID
  {b820cb69-6c4b-4af4-a7df-da877353bd94}, ! Version UUID
  1366307155,                             ! Creation Timestamp
  1366307155,                             ! Version Timestamp
  {bf0701f3-e8c5-4365-a66a-9c0b66d7cefa}; ! Name of Object 1

