
OS:Version,
  {96d05d23-9518-47b6-ac9d-ab24c7da2350}, ! Handle
  0.9.3;                                  ! Version Identifier

OS:SizingPeriod:DesignDay,
  {a231ef54-298b-4d7d-8ce6-f473a367e9c0}, ! Handle
  Annette Ann Clg .4% Condns Enth=>MDB,   ! Name
  20.8,                                   ! Maximum Dry-Bulb Temperature {C}
  5.2,                                    ! Daily Dry-Bulb Temperature Range {deltaC}
  47100,                                  ! Humidity Indicating Conditions at Maximum Dry-Bulb {BasedOnField A3}
  100917,                                 ! Barometric Pressure {Pa}
  3.4,                                    ! Wind Speed {m/s}
  300,                                    ! Wind Direction {deg}
  0,                                      ! Sky Clearness
  0,                                      ! Rain Indicator
  0,                                      ! Snow Indicator
  21,                                     ! Day of Month
  8,                                      ! Month
  SummerDesignDay,                        ! Day Type
  0,                                      ! Daylight Saving Time Indicator
  Enthalpy,                               ! Humidity Indicating Type
  ,                                       ! Humidity Indicating Day Schedule Name
  DefaultMultipliers,                     ! Dry-Bulb Temperature Range Modifier Type
  ,                                       ! Dry-Bulb Temperature Range Modifier Schedule Name
  ASHRAETau,                              ! Solar Model Indicator
  ,                                       ! Beam Solar Day Schedule Name
  ,                                       ! Diffuse Solar Day Schedule Name
  0.369,                                  ! ASHRAE Taub {dimensionless}
  2.372;                                  ! ASHRAE Taud {dimensionless}

OS:ComponentData,
  {1f5e60a0-3577-4564-b759-fa41a19f410c}, ! Handle
  Component Data 1,                       ! Name
  {c7113bf7-e38d-43fd-aa20-7d88dcf4ce7d}, ! UUID
  {2fe4a971-a329-4dac-83d1-a2b3dc0051e3}, ! Version UUID
  1366304725,                             ! Creation Timestamp
  1366304725,                             ! Version Timestamp
  {a231ef54-298b-4d7d-8ce6-f473a367e9c0}; ! Name of Object 1

