
OS:Version,
  {1f67ed85-0942-40eb-be3f-19751bd9605a}, ! Handle
  0.9.3;                                  ! Version Identifier

OS:SizingPeriod:DesignDay,
  {3033095b-0451-4165-b8cd-ff2c02282197}, ! Handle
  Huron Ann Htg Wind 99.6% Condns WS=>MCDB, ! Name
  -13,                                    ! Maximum Dry-Bulb Temperature {C}
  0,                                      ! Daily Dry-Bulb Temperature Range {deltaC}
  -13,                                    ! Humidity Indicating Conditions at Maximum Dry-Bulb {BasedOnField A3}
  96692,                                  ! Barometric Pressure {Pa}
  14.8,                                   ! Wind Speed {m/s}
  320,                                    ! Wind Direction {deg}
  0,                                      ! Sky Clearness
  0,                                      ! Rain Indicator
  0,                                      ! Snow Indicator
  21,                                     ! Day of Month
  1,                                      ! Month
  WinterDesignDay,                        ! Day Type
  0,                                      ! Daylight Saving Time Indicator
  Wetbulb,                                ! Humidity Indicating Type
  ,                                       ! Humidity Indicating Day Schedule Name
  DefaultMultipliers,                     ! Dry-Bulb Temperature Range Modifier Type
  ,                                       ! Dry-Bulb Temperature Range Modifier Schedule Name
  ASHRAEClearSky;                         ! Solar Model Indicator

OS:ComponentData,
  {ce519b43-7218-4ebf-a573-5b2d3b100bca}, ! Handle
  Component Data 1,                       ! Name
  {bebaf040-78fb-4cbd-814d-53f3428d3199}, ! UUID
  {9cdb1139-67c8-427d-995a-634ff3a7fb9a}, ! Version UUID
  1366310403,                             ! Creation Timestamp
  1366310403,                             ! Version Timestamp
  {3033095b-0451-4165-b8cd-ff2c02282197}; ! Name of Object 1

