
OS:Version,
  {879299bf-6f50-445e-bdb1-a704e7c8e815}, ! Handle
  0.9.3;                                  ! Version Identifier

OS:SizingPeriod:DesignDay,
  {06dfb33a-e708-479c-bff5-4b9c58398b2e}, ! Handle
  Albuquerque Ann Htg Wind 99% Condns WS=>MCDB, ! Name
  2.7,                                    ! Maximum Dry-Bulb Temperature {C}
  0,                                      ! Daily Dry-Bulb Temperature Range {deltaC}
  2.7,                                    ! Humidity Indicating Conditions at Maximum Dry-Bulb {BasedOnField A3}
  83318,                                  ! Barometric Pressure {Pa}
  12.5,                                   ! Wind Speed {m/s}
  0,                                      ! Wind Direction {deg}
  0,                                      ! Sky Clearness
  0,                                      ! Rain Indicator
  0,                                      ! Snow Indicator
  21,                                     ! Day of Month
  12,                                     ! Month
  WinterDesignDay,                        ! Day Type
  0,                                      ! Daylight Saving Time Indicator
  Wetbulb,                                ! Humidity Indicating Type
  ,                                       ! Humidity Indicating Day Schedule Name
  DefaultMultipliers,                     ! Dry-Bulb Temperature Range Modifier Type
  ,                                       ! Dry-Bulb Temperature Range Modifier Schedule Name
  ASHRAEClearSky;                         ! Solar Model Indicator

OS:ComponentData,
  {cb3749a6-23a1-44d0-aa3d-0adeb451489e}, ! Handle
  Component Data 1,                       ! Name
  {ea88fdb4-71ac-4aa7-9db3-7d590f3a5af8}, ! UUID
  {1c43020f-b97f-4508-86b7-c5f6920942cb}, ! Version UUID
  1366309362,                             ! Creation Timestamp
  1366309362,                             ! Version Timestamp
  {06dfb33a-e708-479c-bff5-4b9c58398b2e}; ! Name of Object 1

