
OS:Version,
  {6344ae47-01cf-4134-bb4b-b0c17a7e6a95}, ! Handle
  0.9.3;                                  ! Version Identifier

OS:SizingPeriod:DesignDay,
  {de502d36-391f-491a-acd6-dd4ff1384ce0}, ! Handle
  Lawton Municipal Ann Clg 1% Condns DB=>MWB, ! Name
  37.9,                                   ! Maximum Dry-Bulb Temperature {C}
  13.7,                                   ! Daily Dry-Bulb Temperature Range {deltaC}
  23.2,                                   ! Humidity Indicating Conditions at Maximum Dry-Bulb {BasedOnField A3}
  97330,                                  ! Barometric Pressure {Pa}
  5.2,                                    ! Wind Speed {m/s}
  170,                                    ! Wind Direction {deg}
  0,                                      ! Sky Clearness
  0,                                      ! Rain Indicator
  0,                                      ! Snow Indicator
  21,                                     ! Day of Month
  7,                                      ! Month
  SummerDesignDay,                        ! Day Type
  0,                                      ! Daylight Saving Time Indicator
  Wetbulb,                                ! Humidity Indicating Type
  ,                                       ! Humidity Indicating Day Schedule Name
  DefaultMultipliers,                     ! Dry-Bulb Temperature Range Modifier Type
  ,                                       ! Dry-Bulb Temperature Range Modifier Schedule Name
  ASHRAETau,                              ! Solar Model Indicator
  ,                                       ! Beam Solar Day Schedule Name
  ,                                       ! Diffuse Solar Day Schedule Name
  0.436,                                  ! ASHRAE Taub {dimensionless}
  2.167;                                  ! ASHRAE Taud {dimensionless}

OS:ComponentData,
  {7d7a6b5c-ef4b-4815-ab9a-45a23c83cc3f}, ! Handle
  Component Data 1,                       ! Name
  {24e009ae-1811-49e3-b58f-18aa5d6bc7ee}, ! UUID
  {23e634d9-d0f6-45e6-988b-575d08613f64}, ! Version UUID
  1366309903,                             ! Creation Timestamp
  1366309903,                             ! Version Timestamp
  {de502d36-391f-491a-acd6-dd4ff1384ce0}; ! Name of Object 1

