
OS:Version,
  {71c902f7-3c60-40d3-a83a-71608aeee3a0}, ! Handle
  0.9.3;                                  ! Version Identifier

OS:SizingPeriod:DesignDay,
  {514b2e1e-784d-4e16-b023-4fc417bd5625}, ! Handle
  Chicago Ohare Intl Ap Ann Htg Wind 99.6% Condns WS=>MCDB, ! Name
  -3.5,                                   ! Maximum Dry-Bulb Temperature {C}
  0,                                      ! Daily Dry-Bulb Temperature Range {deltaC}
  -3.5,                                   ! Humidity Indicating Conditions at Maximum Dry-Bulb {BasedOnField A3}
  98934,                                  ! Barometric Pressure {Pa}
  12.4,                                   ! Wind Speed {m/s}
  270,                                    ! Wind Direction {deg}
  0,                                      ! Sky Clearness
  0,                                      ! Rain Indicator
  0,                                      ! Snow Indicator
  21,                                     ! Day of Month
  1,                                      ! Month
  WinterDesignDay,                        ! Day Type
  0,                                      ! Daylight Saving Time Indicator
  Wetbulb,                                ! Humidity Indicating Type
  ,                                       ! Humidity Indicating Day Schedule Name
  DefaultMultipliers,                     ! Dry-Bulb Temperature Range Modifier Type
  ,                                       ! Dry-Bulb Temperature Range Modifier Schedule Name
  ASHRAEClearSky;                         ! Solar Model Indicator

OS:ComponentData,
  {4d3362bf-f298-434d-885e-699c0eb72d16}, ! Handle
  Component Data 1,                       ! Name
  {a7d02e14-ab56-4ab2-be14-d5204c9369f1}, ! UUID
  {ec77eb6b-109f-4f81-9385-71098000fa33}, ! Version UUID
  1366307350,                             ! Creation Timestamp
  1366307350,                             ! Version Timestamp
  {514b2e1e-784d-4e16-b023-4fc417bd5625}; ! Name of Object 1

