
OS:Version,
  {52a8e72c-6a75-4756-a9bc-125cfe4bf35d}, ! Handle
  0.9.3;                                  ! Version Identifier

OS:SizingPeriod:DesignDay,
  {4c7803e8-ee76-496f-b9f4-db4c3b75fce9}, ! Handle
  Long Beach Daugherty Fld Ann Htg 99.6% Condns DB, ! Name
  5.1,                                    ! Maximum Dry-Bulb Temperature {C}
  0,                                      ! Daily Dry-Bulb Temperature Range {deltaC}
  5.1,                                    ! Humidity Indicating Conditions at Maximum Dry-Bulb {BasedOnField A3}
  101229,                                 ! Barometric Pressure {Pa}
  1.2,                                    ! Wind Speed {m/s}
  300,                                    ! Wind Direction {deg}
  0,                                      ! Sky Clearness
  0,                                      ! Rain Indicator
  0,                                      ! Snow Indicator
  21,                                     ! Day of Month
  12,                                     ! Month
  WinterDesignDay,                        ! Day Type
  0,                                      ! Daylight Saving Time Indicator
  Wetbulb,                                ! Humidity Indicating Type
  ,                                       ! Humidity Indicating Day Schedule Name
  DefaultMultipliers,                     ! Dry-Bulb Temperature Range Modifier Type
  ,                                       ! Dry-Bulb Temperature Range Modifier Schedule Name
  ASHRAEClearSky;                         ! Solar Model Indicator

OS:ComponentData,
  {1719f44e-ceac-4b99-90fd-eb6e90c38fc7}, ! Handle
  Component Data 1,                       ! Name
  {914d6eee-0616-40a7-91e9-810cd174864c}, ! UUID
  {b35984e8-1b20-409b-8918-29e8fd2d99be}, ! Version UUID
  1366306471,                             ! Creation Timestamp
  1366306471,                             ! Version Timestamp
  {4c7803e8-ee76-496f-b9f4-db4c3b75fce9}; ! Name of Object 1

