
OS:Version,
  {50f3ba04-40fe-4709-9b18-0748b2bafb8a}, ! Handle
  0.9.3;                                  ! Version Identifier

OS:SizingPeriod:DesignDay,
  {928c1822-8a26-44c1-ae1f-0dc1f8eef2bc}, ! Handle
  Gallup Sen Clarke Fld Ann Hum_n 99.6% Condns DP=>MCDB, ! Name
  -10.6,                                  ! Maximum Dry-Bulb Temperature {C}
  0,                                      ! Daily Dry-Bulb Temperature Range {deltaC}
  -22.9,                                  ! Humidity Indicating Conditions at Maximum Dry-Bulb {BasedOnField A3}
  79782,                                  ! Barometric Pressure {Pa}
  0.6,                                    ! Wind Speed {m/s}
  160,                                    ! Wind Direction {deg}
  0,                                      ! Sky Clearness
  0,                                      ! Rain Indicator
  0,                                      ! Snow Indicator
  21,                                     ! Day of Month
  12,                                     ! Month
  WinterDesignDay,                        ! Day Type
  0,                                      ! Daylight Saving Time Indicator
  Dewpoint,                               ! Humidity Indicating Type
  ,                                       ! Humidity Indicating Day Schedule Name
  DefaultMultipliers,                     ! Dry-Bulb Temperature Range Modifier Type
  ,                                       ! Dry-Bulb Temperature Range Modifier Schedule Name
  ASHRAEClearSky;                         ! Solar Model Indicator

OS:ComponentData,
  {04b4618e-f6fc-41bd-8425-410b37b6111a}, ! Handle
  Component Data 1,                       ! Name
  {95dbb5be-6c3e-41ec-8723-166b4964d13d}, ! UUID
  {66bebf47-0db7-4554-bfa4-b9db31856aeb}, ! Version UUID
  1366309408,                             ! Creation Timestamp
  1366309408,                             ! Version Timestamp
  {928c1822-8a26-44c1-ae1f-0dc1f8eef2bc}; ! Name of Object 1

