
OS:Version,
  {bbb014ea-06ad-4c00-b4f4-600a74d171a1}, ! Handle
  0.9.3;                                  ! Version Identifier

OS:SizingPeriod:DesignDay,
  {b1d30be0-da01-4539-866c-1cbd779d555c}, ! Handle
  Lewistown Municipal Arpt Ann Clg 1% Condns DB=>MWB, ! Name
  30.5,                                   ! Maximum Dry-Bulb Temperature {C}
  15.7,                                   ! Daily Dry-Bulb Temperature Range {deltaC}
  15.7,                                   ! Humidity Indicating Conditions at Maximum Dry-Bulb {BasedOnField A3}
  87044,                                  ! Barometric Pressure {Pa}
  4.3,                                    ! Wind Speed {m/s}
  0,                                      ! Wind Direction {deg}
  0,                                      ! Sky Clearness
  0,                                      ! Rain Indicator
  0,                                      ! Snow Indicator
  21,                                     ! Day of Month
  7,                                      ! Month
  SummerDesignDay,                        ! Day Type
  0,                                      ! Daylight Saving Time Indicator
  Wetbulb,                                ! Humidity Indicating Type
  ,                                       ! Humidity Indicating Day Schedule Name
  DefaultMultipliers,                     ! Dry-Bulb Temperature Range Modifier Type
  ,                                       ! Dry-Bulb Temperature Range Modifier Schedule Name
  ASHRAETau,                              ! Solar Model Indicator
  ,                                       ! Beam Solar Day Schedule Name
  ,                                       ! Diffuse Solar Day Schedule Name
  0.382,                                  ! ASHRAE Taub {dimensionless}
  2.178;                                  ! ASHRAE Taud {dimensionless}

