
OS:Version,
  {428e13d1-537e-424e-8456-d15af84a9707}, ! Handle
  0.9.3;                                  ! Version Identifier

OS:SizingPeriod:DesignDay,
  {1b0c8c35-4519-47bd-b789-987672659eb7}, ! Handle
  El Paso Ann Htg Wind 99.6% Condns WS=>MCDB, ! Name
  12.2,                                   ! Maximum Dry-Bulb Temperature {C}
  0,                                      ! Daily Dry-Bulb Temperature Range {deltaC}
  12.2,                                   ! Humidity Indicating Conditions at Maximum Dry-Bulb {BasedOnField A3}
  87780,                                  ! Barometric Pressure {Pa}
  12.8,                                   ! Wind Speed {m/s}
  20,                                     ! Wind Direction {deg}
  0,                                      ! Sky Clearness
  0,                                      ! Rain Indicator
  0,                                      ! Snow Indicator
  21,                                     ! Day of Month
  12,                                     ! Month
  WinterDesignDay,                        ! Day Type
  0,                                      ! Daylight Saving Time Indicator
  Wetbulb,                                ! Humidity Indicating Type
  ,                                       ! Humidity Indicating Day Schedule Name
  DefaultMultipliers,                     ! Dry-Bulb Temperature Range Modifier Type
  ,                                       ! Dry-Bulb Temperature Range Modifier Schedule Name
  ASHRAEClearSky;                         ! Solar Model Indicator

OS:ComponentData,
  {9f439d8b-5eb5-4a25-9a18-a21907291a47}, ! Handle
  Component Data 1,                       ! Name
  {7bb40d0e-dbff-45e1-992e-645e0d34da7f}, ! UUID
  {3051e2e4-de60-4d44-8321-2bb8da650a80}, ! Version UUID
  1366310688,                             ! Creation Timestamp
  1366310688,                             ! Version Timestamp
  {1b0c8c35-4519-47bd-b789-987672659eb7}; ! Name of Object 1

