
OS:Version,
  {396d91a9-9243-4e2f-ab32-db3adb94765e}, ! Handle
  0.9.3;                                  ! Version Identifier

OS:SizingPeriod:DesignDay,
  {bd0fbb2f-c160-475f-8f96-8dbdf962fbc4}, ! Handle
  Akron/Canton Ann Clg 2% Condns Enth=>MDB, ! Name
  26.8,                                   ! Maximum Dry-Bulb Temperature {C}
  10.4,                                   ! Daily Dry-Bulb Temperature Range {deltaC}
  67800,                                  ! Humidity Indicating Conditions at Maximum Dry-Bulb {BasedOnField A3}
  96877,                                  ! Barometric Pressure {Pa}
  4.6,                                    ! Wind Speed {m/s}
  230,                                    ! Wind Direction {deg}
  0,                                      ! Sky Clearness
  0,                                      ! Rain Indicator
  0,                                      ! Snow Indicator
  21,                                     ! Day of Month
  7,                                      ! Month
  SummerDesignDay,                        ! Day Type
  0,                                      ! Daylight Saving Time Indicator
  Enthalpy,                               ! Humidity Indicating Type
  ,                                       ! Humidity Indicating Day Schedule Name
  DefaultMultipliers,                     ! Dry-Bulb Temperature Range Modifier Type
  ,                                       ! Dry-Bulb Temperature Range Modifier Schedule Name
  ASHRAETau,                              ! Solar Model Indicator
  ,                                       ! Beam Solar Day Schedule Name
  ,                                       ! Diffuse Solar Day Schedule Name
  0.464,                                  ! ASHRAE Taub {dimensionless}
  1.994;                                  ! ASHRAE Taud {dimensionless}

OS:ComponentData,
  {4344bc49-f40a-4b28-b668-53bff6c8a22a}, ! Handle
  Component Data 1,                       ! Name
  {5c69068f-38a6-45d9-bc03-d0180fc7b4f2}, ! UUID
  {11bcc5e8-d23c-443d-be12-cbd1bc4a7ec1}, ! Version UUID
  1366309767,                             ! Creation Timestamp
  1366309767,                             ! Version Timestamp
  {bd0fbb2f-c160-475f-8f96-8dbdf962fbc4}; ! Name of Object 1

