
OS:Version,
  {cbcf6a1f-2a9b-48fb-b1bb-cb02865044ea}, ! Handle
  0.9.3;                                  ! Version Identifier

OS:SizingPeriod:DesignDay,
  {aac01fc7-cec4-4507-a1ce-2f6128439538}, ! Handle
  Glasgow Ann Clg 2% Condns DB=>MWB,      ! Name
  30.9,                                   ! Maximum Dry-Bulb Temperature {C}
  14.5,                                   ! Daily Dry-Bulb Temperature Range {deltaC}
  17.1,                                   ! Humidity Indicating Conditions at Maximum Dry-Bulb {BasedOnField A3}
  93194,                                  ! Barometric Pressure {Pa}
  5.4,                                    ! Wind Speed {m/s}
  150,                                    ! Wind Direction {deg}
  0,                                      ! Sky Clearness
  0,                                      ! Rain Indicator
  0,                                      ! Snow Indicator
  21,                                     ! Day of Month
  7,                                      ! Month
  SummerDesignDay,                        ! Day Type
  0,                                      ! Daylight Saving Time Indicator
  Wetbulb,                                ! Humidity Indicating Type
  ,                                       ! Humidity Indicating Day Schedule Name
  DefaultMultipliers,                     ! Dry-Bulb Temperature Range Modifier Type
  ,                                       ! Dry-Bulb Temperature Range Modifier Schedule Name
  ASHRAETau,                              ! Solar Model Indicator
  ,                                       ! Beam Solar Day Schedule Name
  ,                                       ! Diffuse Solar Day Schedule Name
  0.424,                                  ! ASHRAE Taub {dimensionless}
  2.044;                                  ! ASHRAE Taud {dimensionless}

OS:ComponentData,
  {502c38ac-1fc0-4d24-be59-1d3e7f564117}, ! Handle
  Component Data 1,                       ! Name
  {5d49e7fa-881b-4b55-8e2a-38c487302675}, ! UUID
  {3d630025-ebfa-40c3-a03d-1252343c53f9}, ! Version UUID
  1366308759,                             ! Creation Timestamp
  1366308759,                             ! Version Timestamp
  {aac01fc7-cec4-4507-a1ce-2f6128439538}; ! Name of Object 1

