
OS:Version,
  {9ffc9f8d-cf61-405b-87cc-4f07c606aa22}, ! Handle
  0.9.3;                                  ! Version Identifier

OS:SizingPeriod:DesignDay,
  {4d7f360c-ba4c-4acb-9e33-52fc00c9b452}, ! Handle
  Fort Wayne Intl Ap Ann Htg 99.6% Condns DB, ! Name
  -19.2,                                  ! Maximum Dry-Bulb Temperature {C}
  0,                                      ! Daily Dry-Bulb Temperature Range {deltaC}
  -19.2,                                  ! Humidity Indicating Conditions at Maximum Dry-Bulb {BasedOnField A3}
  98463,                                  ! Barometric Pressure {Pa}
  4.6,                                    ! Wind Speed {m/s}
  260,                                    ! Wind Direction {deg}
  0,                                      ! Sky Clearness
  0,                                      ! Rain Indicator
  0,                                      ! Snow Indicator
  21,                                     ! Day of Month
  1,                                      ! Month
  WinterDesignDay,                        ! Day Type
  0,                                      ! Daylight Saving Time Indicator
  Wetbulb,                                ! Humidity Indicating Type
  ,                                       ! Humidity Indicating Day Schedule Name
  DefaultMultipliers,                     ! Dry-Bulb Temperature Range Modifier Type
  ,                                       ! Dry-Bulb Temperature Range Modifier Schedule Name
  ASHRAEClearSky;                         ! Solar Model Indicator

OS:ComponentData,
  {605e4e20-254c-4e34-8896-206c845b5da0}, ! Handle
  Component Data 1,                       ! Name
  {82780d0b-ff57-41de-a44a-19623a873d8b}, ! UUID
  {3f07f513-f731-46de-afb8-350195c41387}, ! Version UUID
  1366307445,                             ! Creation Timestamp
  1366307445,                             ! Version Timestamp
  {4d7f360c-ba4c-4acb-9e33-52fc00c9b452}; ! Name of Object 1

