
OS:Version,
  {044bb175-7dde-4ba3-b06c-ba9616c23242}, ! Handle
  0.9.3;                                  ! Version Identifier

OS:SizingPeriod:DesignDay,
  {0ef66304-5f94-4875-8224-1f5019cd5344}, ! Handle
  Fort Myers Page Field Ann Clg 1% Condns Enth=>MDB, ! Name
  30.7,                                   ! Maximum Dry-Bulb Temperature {C}
  9,                                      ! Daily Dry-Bulb Temperature Range {deltaC}
  82400,                                  ! Humidity Indicating Conditions at Maximum Dry-Bulb {BasedOnField A3}
  101265,                                 ! Barometric Pressure {Pa}
  3.8,                                    ! Wind Speed {m/s}
  70,                                     ! Wind Direction {deg}
  0,                                      ! Sky Clearness
  0,                                      ! Rain Indicator
  0,                                      ! Snow Indicator
  21,                                     ! Day of Month
  8,                                      ! Month
  SummerDesignDay,                        ! Day Type
  0,                                      ! Daylight Saving Time Indicator
  Enthalpy,                               ! Humidity Indicating Type
  ,                                       ! Humidity Indicating Day Schedule Name
  DefaultMultipliers,                     ! Dry-Bulb Temperature Range Modifier Type
  ,                                       ! Dry-Bulb Temperature Range Modifier Schedule Name
  ASHRAETau,                              ! Solar Model Indicator
  ,                                       ! Beam Solar Day Schedule Name
  ,                                       ! Diffuse Solar Day Schedule Name
  0.488,                                  ! ASHRAE Taub {dimensionless}
  2.035;                                  ! ASHRAE Taud {dimensionless}

OS:ComponentData,
  {d231c918-a84a-4632-94f4-c45adb029446}, ! Handle
  Component Data 1,                       ! Name
  {72a03a97-63b4-464c-b8d7-8aba3f7ebbaa}, ! UUID
  {e46335dd-4a2c-4b1d-b9fd-a836b7a42d5c}, ! Version UUID
  1366306802,                             ! Creation Timestamp
  1366306802,                             ! Version Timestamp
  {0ef66304-5f94-4875-8224-1f5019cd5344}; ! Name of Object 1

