
OS:Version,
  {aafd0493-c77d-4319-8def-b21260b9f42a}, ! Handle
  0.9.3;                                  ! Version Identifier

OS:SizingPeriod:DesignDay,
  {4fb0995e-9199-4b69-862b-495af649b12a}, ! Handle
  Fort Smith Ann Clg 1% Condns DP=>MDB,   ! Name
  28.8,                                   ! Maximum Dry-Bulb Temperature {C}
  11.5,                                   ! Daily Dry-Bulb Temperature Range {deltaC}
  24.1,                                   ! Humidity Indicating Conditions at Maximum Dry-Bulb {BasedOnField A3}
  99643,                                  ! Barometric Pressure {Pa}
  3.7,                                    ! Wind Speed {m/s}
  230,                                    ! Wind Direction {deg}
  0,                                      ! Sky Clearness
  0,                                      ! Rain Indicator
  0,                                      ! Snow Indicator
  21,                                     ! Day of Month
  7,                                      ! Month
  SummerDesignDay,                        ! Day Type
  0,                                      ! Daylight Saving Time Indicator
  Dewpoint,                               ! Humidity Indicating Type
  ,                                       ! Humidity Indicating Day Schedule Name
  DefaultMultipliers,                     ! Dry-Bulb Temperature Range Modifier Type
  ,                                       ! Dry-Bulb Temperature Range Modifier Schedule Name
  ASHRAETau,                              ! Solar Model Indicator
  ,                                       ! Beam Solar Day Schedule Name
  ,                                       ! Diffuse Solar Day Schedule Name
  0.49,                                   ! ASHRAE Taub {dimensionless}
  1.983;                                  ! ASHRAE Taud {dimensionless}

OS:ComponentData,
  {41fb470e-c4ce-4ef1-be42-cccca3ca24b0}, ! Handle
  Component Data 1,                       ! Name
  {d49b8054-b932-4880-bd2e-250f7707ac85}, ! UUID
  {d065ac01-aaeb-4f0b-8091-4e63f6657441}, ! Version UUID
  1366306210,                             ! Creation Timestamp
  1366306210,                             ! Version Timestamp
  {4fb0995e-9199-4b69-862b-495af649b12a}; ! Name of Object 1

