
OS:Version,
  {0aef07ed-3be2-42b6-b00d-637e6ebaa65a}, ! Handle
  0.9.3;                                  ! Version Identifier

OS:SizingPeriod:DesignDay,
  {181b8495-f661-49e5-9cc0-52b7a535de62}, ! Handle
  Green Bay Austin Straubel Int Ann Clg 2% Condns Enth=>MDB, ! Name
  26.4,                                   ! Maximum Dry-Bulb Temperature {C}
  11.3,                                   ! Daily Dry-Bulb Temperature Range {deltaC}
  67100,                                  ! Humidity Indicating Conditions at Maximum Dry-Bulb {BasedOnField A3}
  98839,                                  ! Barometric Pressure {Pa}
  5.1,                                    ! Wind Speed {m/s}
  200,                                    ! Wind Direction {deg}
  0,                                      ! Sky Clearness
  0,                                      ! Rain Indicator
  0,                                      ! Snow Indicator
  21,                                     ! Day of Month
  7,                                      ! Month
  SummerDesignDay,                        ! Day Type
  0,                                      ! Daylight Saving Time Indicator
  Enthalpy,                               ! Humidity Indicating Type
  ,                                       ! Humidity Indicating Day Schedule Name
  DefaultMultipliers,                     ! Dry-Bulb Temperature Range Modifier Type
  ,                                       ! Dry-Bulb Temperature Range Modifier Schedule Name
  ASHRAETau,                              ! Solar Model Indicator
  ,                                       ! Beam Solar Day Schedule Name
  ,                                       ! Diffuse Solar Day Schedule Name
  0.432,                                  ! ASHRAE Taub {dimensionless}
  2.118;                                  ! ASHRAE Taud {dimensionless}

OS:ComponentData,
  {c8216a8e-f00b-4d29-b39e-7cc0cdb44423}, ! Handle
  Component Data 1,                       ! Name
  {22de6691-dc04-4687-baf6-b476c20cefa7}, ! UUID
  {e27144d9-b5be-4932-a378-5ba0100b829f}, ! Version UUID
  1366311491,                             ! Creation Timestamp
  1366311491,                             ! Version Timestamp
  {181b8495-f661-49e5-9cc0-52b7a535de62}; ! Name of Object 1

