
OS:Version,
  {c8bf339c-ef67-48c5-a4fa-56f770ecc25f}, ! Handle
  0.9.3;                                  ! Version Identifier

OS:SizingPeriod:DesignDay,
  {d0935027-b94a-4bb8-95f0-19d2e14205fa}, ! Handle
  Cedar Rapids Municipal Ap Ann Clg .4% Condns DB=>MWB, ! Name
  33.1,                                   ! Maximum Dry-Bulb Temperature {C}
  10.9,                                   ! Daily Dry-Bulb Temperature Range {deltaC}
  24.4,                                   ! Humidity Indicating Conditions at Maximum Dry-Bulb {BasedOnField A3}
  98287,                                  ! Barometric Pressure {Pa}
  4.8,                                    ! Wind Speed {m/s}
  180,                                    ! Wind Direction {deg}
  0,                                      ! Sky Clearness
  0,                                      ! Rain Indicator
  0,                                      ! Snow Indicator
  21,                                     ! Day of Month
  7,                                      ! Month
  SummerDesignDay,                        ! Day Type
  0,                                      ! Daylight Saving Time Indicator
  Wetbulb,                                ! Humidity Indicating Type
  ,                                       ! Humidity Indicating Day Schedule Name
  DefaultMultipliers,                     ! Dry-Bulb Temperature Range Modifier Type
  ,                                       ! Dry-Bulb Temperature Range Modifier Schedule Name
  ASHRAETau,                              ! Solar Model Indicator
  ,                                       ! Beam Solar Day Schedule Name
  ,                                       ! Diffuse Solar Day Schedule Name
  0.439,                                  ! ASHRAE Taub {dimensionless}
  2.102;                                  ! ASHRAE Taud {dimensionless}

OS:ComponentData,
  {7767fc74-6bd2-4c8b-9fd1-68c556ee7147}, ! Handle
  Component Data 1,                       ! Name
  {9379221e-2055-4c39-b306-9d97e1e198a6}, ! UUID
  {6f9631ba-2a91-4579-962a-ce003d6391e8}, ! Version UUID
  1366307149,                             ! Creation Timestamp
  1366307149,                             ! Version Timestamp
  {d0935027-b94a-4bb8-95f0-19d2e14205fa}; ! Name of Object 1

