
OS:Version,
  {7898106d-1fa7-49dd-81af-bd309d9b4b83}, ! Handle
  0.9.3;                                  ! Version Identifier

OS:SizingPeriod:DesignDay,
  {b49cae72-2b3a-462c-81e1-b6812606e541}, ! Handle
  Flint Ann Clg 2% Condns DB=>MWB,        ! Name
  28.8,                                   ! Maximum Dry-Bulb Temperature {C}
  11.7,                                   ! Daily Dry-Bulb Temperature Range {deltaC}
  21.3,                                   ! Humidity Indicating Conditions at Maximum Dry-Bulb {BasedOnField A3}
  98557,                                  ! Barometric Pressure {Pa}
  5.3,                                    ! Wind Speed {m/s}
  250,                                    ! Wind Direction {deg}
  0,                                      ! Sky Clearness
  0,                                      ! Rain Indicator
  0,                                      ! Snow Indicator
  21,                                     ! Day of Month
  7,                                      ! Month
  SummerDesignDay,                        ! Day Type
  0,                                      ! Daylight Saving Time Indicator
  Wetbulb,                                ! Humidity Indicating Type
  ,                                       ! Humidity Indicating Day Schedule Name
  DefaultMultipliers,                     ! Dry-Bulb Temperature Range Modifier Type
  ,                                       ! Dry-Bulb Temperature Range Modifier Schedule Name
  ASHRAETau,                              ! Solar Model Indicator
  ,                                       ! Beam Solar Day Schedule Name
  ,                                       ! Diffuse Solar Day Schedule Name
  0.449,                                  ! ASHRAE Taub {dimensionless}
  2.044;                                  ! ASHRAE Taud {dimensionless}

OS:ComponentData,
  {26575f35-bb33-4f28-8373-71a5c86168b9}, ! Handle
  Component Data 1,                       ! Name
  {760d9afe-371c-41f4-b066-89d5e2fe70ae}, ! UUID
  {c1f15284-2be7-483c-ab30-2b32a969f0d6}, ! Version UUID
  1366307995,                             ! Creation Timestamp
  1366307995,                             ! Version Timestamp
  {b49cae72-2b3a-462c-81e1-b6812606e541}; ! Name of Object 1

