
OS:Version,
  {fb3a01c0-78fd-428c-a6e5-8855092c4493}, ! Handle
  0.9.3;                                  ! Version Identifier

OS:SizingPeriod:DesignDay,
  {8c3e31a2-eb5e-47d4-9b60-c1ba8266f7ed}, ! Handle
  Gage Airport Ann Clg .4% Condns WB=>MDB, ! Name
  32.6,                                   ! Maximum Dry-Bulb Temperature {C}
  13.6,                                   ! Daily Dry-Bulb Temperature Range {deltaC}
  24.1,                                   ! Humidity Indicating Conditions at Maximum Dry-Bulb {BasedOnField A3}
  93553,                                  ! Barometric Pressure {Pa}
  6.7,                                    ! Wind Speed {m/s}
  180,                                    ! Wind Direction {deg}
  0,                                      ! Sky Clearness
  0,                                      ! Rain Indicator
  0,                                      ! Snow Indicator
  21,                                     ! Day of Month
  7,                                      ! Month
  SummerDesignDay,                        ! Day Type
  0,                                      ! Daylight Saving Time Indicator
  Wetbulb,                                ! Humidity Indicating Type
  ,                                       ! Humidity Indicating Day Schedule Name
  DefaultMultipliers,                     ! Dry-Bulb Temperature Range Modifier Type
  ,                                       ! Dry-Bulb Temperature Range Modifier Schedule Name
  ASHRAETau,                              ! Solar Model Indicator
  ,                                       ! Beam Solar Day Schedule Name
  ,                                       ! Diffuse Solar Day Schedule Name
  0.417,                                  ! ASHRAE Taub {dimensionless}
  2.179;                                  ! ASHRAE Taud {dimensionless}

OS:ComponentData,
  {731b204c-e4eb-4177-94b6-b4d7e8f0b2c5}, ! Handle
  Component Data 1,                       ! Name
  {efd8ff94-42c8-4908-a2b3-7ec1e32fae47}, ! UUID
  {8b0782ec-e5f6-43ac-9ecd-2c10776d1c15}, ! Version UUID
  1366309894,                             ! Creation Timestamp
  1366309894,                             ! Version Timestamp
  {8c3e31a2-eb5e-47d4-9b60-c1ba8266f7ed}; ! Name of Object 1

