
OS:Version,
  {3de1e93c-18f9-4a35-bd53-36bea74be012}, ! Handle
  0.9.3;                                  ! Version Identifier

OS:SizingPeriod:DesignDay,
  {9fd1ac54-fb23-43e9-9bdf-c96152e1ad30}, ! Handle
  Los Angeles Intl Arpt Ann Htg Wind 99.6% Condns WS=>MCDB, ! Name
  13.6,                                   ! Maximum Dry-Bulb Temperature {C}
  0,                                      ! Daily Dry-Bulb Temperature Range {deltaC}
  13.6,                                   ! Humidity Indicating Conditions at Maximum Dry-Bulb {BasedOnField A3}
  100965,                                 ! Barometric Pressure {Pa}
  10.9,                                   ! Wind Speed {m/s}
  90,                                     ! Wind Direction {deg}
  0,                                      ! Sky Clearness
  0,                                      ! Rain Indicator
  0,                                      ! Snow Indicator
  21,                                     ! Day of Month
  1,                                      ! Month
  WinterDesignDay,                        ! Day Type
  0,                                      ! Daylight Saving Time Indicator
  Wetbulb,                                ! Humidity Indicating Type
  ,                                       ! Humidity Indicating Day Schedule Name
  DefaultMultipliers,                     ! Dry-Bulb Temperature Range Modifier Type
  ,                                       ! Dry-Bulb Temperature Range Modifier Schedule Name
  ASHRAEClearSky;                         ! Solar Model Indicator

OS:ComponentData,
  {bcef9a43-bc58-4810-ab8e-e50b0888c16e}, ! Handle
  Component Data 1,                       ! Name
  {d77467a4-bea2-49cd-b69f-616274483fed}, ! UUID
  {73d57366-1c5c-4f73-9287-1f31de848822}, ! Version UUID
  1366306483,                             ! Creation Timestamp
  1366306483,                             ! Version Timestamp
  {9fd1ac54-fb23-43e9-9bdf-c96152e1ad30}; ! Name of Object 1

