
OS:Version,
  {b2b64774-0cb1-4fda-90e6-0daf38ed8406}, ! Handle
  0.9.3;                                  ! Version Identifier

OS:SizingPeriod:DesignDay,
  {2269050b-e12e-4d26-b3f1-08a9ca9b53ee}, ! Handle
  Eagle County Ap Ann Htg Wind 99.6% Condns WS=>MCDB, ! Name
  1,                                      ! Maximum Dry-Bulb Temperature {C}
  0,                                      ! Daily Dry-Bulb Temperature Range {deltaC}
  1,                                      ! Humidity Indicating Conditions at Maximum Dry-Bulb {BasedOnField A3}
  79693,                                  ! Barometric Pressure {Pa}
  10.4,                                   ! Wind Speed {m/s}
  120,                                    ! Wind Direction {deg}
  0,                                      ! Sky Clearness
  0,                                      ! Rain Indicator
  0,                                      ! Snow Indicator
  21,                                     ! Day of Month
  1,                                      ! Month
  WinterDesignDay,                        ! Day Type
  0,                                      ! Daylight Saving Time Indicator
  Wetbulb,                                ! Humidity Indicating Type
  ,                                       ! Humidity Indicating Day Schedule Name
  DefaultMultipliers,                     ! Dry-Bulb Temperature Range Modifier Type
  ,                                       ! Dry-Bulb Temperature Range Modifier Schedule Name
  ASHRAEClearSky;                         ! Solar Model Indicator

