
OS:Version,
  {2f025cda-b106-4e87-b7df-0e87c771fa0b}, ! Handle
  0.9.3;                                  ! Version Identifier

OS:SizingPeriod:DesignDay,
  {40a7e6ba-f1db-42a9-92d2-be0cf029bc0b}, ! Handle
  Corpus Christi Ann Clg 1% Condns Enth=>MDB, ! Name
  31.4,                                   ! Maximum Dry-Bulb Temperature {C}
  10.1,                                   ! Daily Dry-Bulb Temperature Range {deltaC}
  83800,                                  ! Humidity Indicating Conditions at Maximum Dry-Bulb {BasedOnField A3}
  101169,                                 ! Barometric Pressure {Pa}
  6.6,                                    ! Wind Speed {m/s}
  140,                                    ! Wind Direction {deg}
  0,                                      ! Sky Clearness
  0,                                      ! Rain Indicator
  0,                                      ! Snow Indicator
  21,                                     ! Day of Month
  8,                                      ! Month
  SummerDesignDay,                        ! Day Type
  0,                                      ! Daylight Saving Time Indicator
  Enthalpy,                               ! Humidity Indicating Type
  ,                                       ! Humidity Indicating Day Schedule Name
  DefaultMultipliers,                     ! Dry-Bulb Temperature Range Modifier Type
  ,                                       ! Dry-Bulb Temperature Range Modifier Schedule Name
  ASHRAETau,                              ! Solar Model Indicator
  ,                                       ! Beam Solar Day Schedule Name
  ,                                       ! Diffuse Solar Day Schedule Name
  0.463,                                  ! ASHRAE Taub {dimensionless}
  2.116;                                  ! ASHRAE Taud {dimensionless}

OS:ComponentData,
  {14fd0a2d-dcd0-4436-8065-26dbf171408d}, ! Handle
  Component Data 1,                       ! Name
  {f112e9d4-4d28-4678-b776-83d4b3cbf3a5}, ! UUID
  {e144689b-aaa4-4290-af2d-c9057021aa5c}, ! Version UUID
  1366310627,                             ! Creation Timestamp
  1366310627,                             ! Version Timestamp
  {40a7e6ba-f1db-42a9-92d2-be0cf029bc0b}; ! Name of Object 1

