
OS:Version,
  {53e0235e-a1eb-4433-89d4-6ba6aa786605}, ! Handle
  0.9.3;                                  ! Version Identifier

OS:SizingPeriod:DesignDay,
  {5e4edb04-35e1-4728-9f8e-49efb96fb2cc}, ! Handle
  Lubbock International Ap Ann Clg 1% Condns WB=>MDB, ! Name
  30.2,                                   ! Maximum Dry-Bulb Temperature {C}
  13.1,                                   ! Daily Dry-Bulb Temperature Range {deltaC}
  22.2,                                   ! Humidity Indicating Conditions at Maximum Dry-Bulb {BasedOnField A3}
  89962,                                  ! Barometric Pressure {Pa}
  6.4,                                    ! Wind Speed {m/s}
  170,                                    ! Wind Direction {deg}
  0,                                      ! Sky Clearness
  0,                                      ! Rain Indicator
  0,                                      ! Snow Indicator
  21,                                     ! Day of Month
  7,                                      ! Month
  SummerDesignDay,                        ! Day Type
  0,                                      ! Daylight Saving Time Indicator
  Wetbulb,                                ! Humidity Indicating Type
  ,                                       ! Humidity Indicating Day Schedule Name
  DefaultMultipliers,                     ! Dry-Bulb Temperature Range Modifier Type
  ,                                       ! Dry-Bulb Temperature Range Modifier Schedule Name
  ASHRAETau,                              ! Solar Model Indicator
  ,                                       ! Beam Solar Day Schedule Name
  ,                                       ! Diffuse Solar Day Schedule Name
  0.396,                                  ! ASHRAE Taub {dimensionless}
  2.241;                                  ! ASHRAE Taud {dimensionless}

OS:ComponentData,
  {af101fd2-222b-432b-95ca-35cd944d0997}, ! Handle
  Component Data 1,                       ! Name
  {068f9fb2-8521-437f-8189-53d03baf16c5}, ! UUID
  {f5311e85-1a06-4f84-be65-3a8191835f20}, ! Version UUID
  1366310799,                             ! Creation Timestamp
  1366310799,                             ! Version Timestamp
  {5e4edb04-35e1-4728-9f8e-49efb96fb2cc}; ! Name of Object 1

