
OS:Version,
  {9be0cd10-c9a0-4557-b2fe-8e40bcfe079e}, ! Handle
  0.9.3;                                  ! Version Identifier

OS:SizingPeriod:DesignDay,
  {0fd1cc6f-dfb6-4951-a625-598420f900b8}, ! Handle
  Iliamna Arpt Ann Clg 1% Condns WB=>MDB, ! Name
  18.3,                                   ! Maximum Dry-Bulb Temperature {C}
  7,                                      ! Daily Dry-Bulb Temperature Range {deltaC}
  14.4,                                   ! Humidity Indicating Conditions at Maximum Dry-Bulb {BasedOnField A3}
  100642,                                 ! Barometric Pressure {Pa}
  4.3,                                    ! Wind Speed {m/s}
  210,                                    ! Wind Direction {deg}
  0,                                      ! Sky Clearness
  0,                                      ! Rain Indicator
  0,                                      ! Snow Indicator
  21,                                     ! Day of Month
  7,                                      ! Month
  SummerDesignDay,                        ! Day Type
  0,                                      ! Daylight Saving Time Indicator
  Wetbulb,                                ! Humidity Indicating Type
  ,                                       ! Humidity Indicating Day Schedule Name
  DefaultMultipliers,                     ! Dry-Bulb Temperature Range Modifier Type
  ,                                       ! Dry-Bulb Temperature Range Modifier Schedule Name
  ASHRAETau,                              ! Solar Model Indicator
  ,                                       ! Beam Solar Day Schedule Name
  ,                                       ! Diffuse Solar Day Schedule Name
  0.384,                                  ! ASHRAE Taub {dimensionless}
  2.215;                                  ! ASHRAE Taud {dimensionless}

OS:ComponentData,
  {af138a13-642e-438d-a649-8a443eb7a033}, ! Handle
  Component Data 1,                       ! Name
  {20dd55f0-c6fb-41b8-bc81-a5414c9ca740}, ! UUID
  {393e5ff3-c024-49bc-9c8a-63d6e3578d92}, ! Version UUID
  1366305326,                             ! Creation Timestamp
  1366305326,                             ! Version Timestamp
  {0fd1cc6f-dfb6-4951-a625-598420f900b8}; ! Name of Object 1

