
OS:Version,
  {e88956c4-737d-4851-8985-df1c389cb8f7}, ! Handle
  0.9.3;                                  ! Version Identifier

OS:SizingPeriod:DesignDay,
  {99d01036-4729-4d50-a181-a8c9e9a3fdf4}, ! Handle
  HUNTSVILLE Ann Clg 2% Condns WB=>MDB,   ! Name
  29.8,                                   ! Maximum Dry-Bulb Temperature {C}
  10.4,                                   ! Daily Dry-Bulb Temperature Range {deltaC}
  24.7,                                   ! Humidity Indicating Conditions at Maximum Dry-Bulb {BasedOnField A3}
  99063,                                  ! Barometric Pressure {Pa}
  3.6,                                    ! Wind Speed {m/s}
  270,                                    ! Wind Direction {deg}
  0,                                      ! Sky Clearness
  0,                                      ! Rain Indicator
  0,                                      ! Snow Indicator
  21,                                     ! Day of Month
  7,                                      ! Month
  SummerDesignDay,                        ! Day Type
  0,                                      ! Daylight Saving Time Indicator
  Wetbulb,                                ! Humidity Indicating Type
  ,                                       ! Humidity Indicating Day Schedule Name
  DefaultMultipliers,                     ! Dry-Bulb Temperature Range Modifier Type
  ,                                       ! Dry-Bulb Temperature Range Modifier Schedule Name
  ASHRAETau,                              ! Solar Model Indicator
  ,                                       ! Beam Solar Day Schedule Name
  ,                                       ! Diffuse Solar Day Schedule Name
  0.552,                                  ! ASHRAE Taub {dimensionless}
  1.785;                                  ! ASHRAE Taud {dimensionless}

OS:ComponentData,
  {5e3fbe68-2351-45d1-a884-18af65d77164}, ! Handle
  Component Data 1,                       ! Name
  {669bd69f-0b33-4842-b08c-7afa7ac3d933}, ! UUID
  {f2539109-6e7c-4246-998f-4aa12cd7d3d5}, ! Version UUID
  1366305667,                             ! Creation Timestamp
  1366305667,                             ! Version Timestamp
  {99d01036-4729-4d50-a181-a8c9e9a3fdf4}; ! Name of Object 1

