
OS:Version,
  {d0d9811c-75dd-4cb6-b78d-5830a0937d05}, ! Handle
  0.9.3;                                  ! Version Identifier

OS:SizingPeriod:DesignDay,
  {5a106fa4-a685-4f77-869c-3b05982ce63a}, ! Handle
  Hondo Municipal Ap Ann Hum_n 99% Condns DP=>MCDB, ! Name
  5.5,                                    ! Maximum Dry-Bulb Temperature {C}
  0,                                      ! Daily Dry-Bulb Temperature Range {deltaC}
  -8.9,                                   ! Humidity Indicating Conditions at Maximum Dry-Bulb {BasedOnField A3}
  98006,                                  ! Barometric Pressure {Pa}
  2.9,                                    ! Wind Speed {m/s}
  10,                                     ! Wind Direction {deg}
  0,                                      ! Sky Clearness
  0,                                      ! Rain Indicator
  0,                                      ! Snow Indicator
  21,                                     ! Day of Month
  1,                                      ! Month
  WinterDesignDay,                        ! Day Type
  0,                                      ! Daylight Saving Time Indicator
  Dewpoint,                               ! Humidity Indicating Type
  ,                                       ! Humidity Indicating Day Schedule Name
  DefaultMultipliers,                     ! Dry-Bulb Temperature Range Modifier Type
  ,                                       ! Dry-Bulb Temperature Range Modifier Schedule Name
  ASHRAEClearSky;                         ! Solar Model Indicator

OS:ComponentData,
  {f4ccab78-e1f2-4c62-9635-ba6c578b9147}, ! Handle
  Component Data 1,                       ! Name
  {e630559c-5dd2-4f06-8a08-b4680cdfe029}, ! UUID
  {87f75411-b4e9-4bb7-a028-e32291bb6de7}, ! Version UUID
  1366310735,                             ! Creation Timestamp
  1366310735,                             ! Version Timestamp
  {5a106fa4-a685-4f77-869c-3b05982ce63a}; ! Name of Object 1

