
OS:Version,
  {ffeb326c-f853-46cd-88a9-b1e9e46a110f}, ! Handle
  0.9.3;                                  ! Version Identifier

OS:SizingPeriod:DesignDay,
  {9755851d-e208-4cc8-81ff-1bf266a99c28}, ! Handle
  GRAND_JUNCTION Ann Clg .4% Condns WB=>MDB, ! Name
  29.7,                                   ! Maximum Dry-Bulb Temperature {C}
  15.3,                                   ! Daily Dry-Bulb Temperature Range {deltaC}
  18.6,                                   ! Humidity Indicating Conditions at Maximum Dry-Bulb {BasedOnField A3}
  84816,                                  ! Barometric Pressure {Pa}
  4.6,                                    ! Wind Speed {m/s}
  270,                                    ! Wind Direction {deg}
  0,                                      ! Sky Clearness
  0,                                      ! Rain Indicator
  0,                                      ! Snow Indicator
  21,                                     ! Day of Month
  7,                                      ! Month
  SummerDesignDay,                        ! Day Type
  0,                                      ! Daylight Saving Time Indicator
  Wetbulb,                                ! Humidity Indicating Type
  ,                                       ! Humidity Indicating Day Schedule Name
  DefaultMultipliers,                     ! Dry-Bulb Temperature Range Modifier Type
  ,                                       ! Dry-Bulb Temperature Range Modifier Schedule Name
  ASHRAETau,                              ! Solar Model Indicator
  ,                                       ! Beam Solar Day Schedule Name
  ,                                       ! Diffuse Solar Day Schedule Name
  0.41,                                   ! ASHRAE Taub {dimensionless}
  2.106;                                  ! ASHRAE Taud {dimensionless}

OS:ComponentData,
  {06ec3cb8-3e5f-409d-bcec-6c69f5d0d5a1}, ! Handle
  Component Data 1,                       ! Name
  {f263228b-b690-4c2f-9f84-a6177e923bf9}, ! UUID
  {4987a8b8-6ff0-4045-9f2a-fe1e789e7428}, ! Version UUID
  1366306703,                             ! Creation Timestamp
  1366306703,                             ! Version Timestamp
  {9755851d-e208-4cc8-81ff-1bf266a99c28}; ! Name of Object 1

