
OS:Version,
  {3ec11cf1-f01c-41f5-b322-a5904b631ba1}, ! Handle
  0.9.3;                                  ! Version Identifier

OS:SizingPeriod:DesignDay,
  {ceab40bd-68e2-41ee-a688-97c14a378759}, ! Handle
  FAIRBANKS Ann Clg .4% Condns Enth=>MDB, ! Name
  24.7,                                   ! Maximum Dry-Bulb Temperature {C}
  10.2,                                   ! Daily Dry-Bulb Temperature Range {deltaC}
  48800,                                  ! Humidity Indicating Conditions at Maximum Dry-Bulb {BasedOnField A3}
  99678,                                  ! Barometric Pressure {Pa}
  3.1,                                    ! Wind Speed {m/s}
  180,                                    ! Wind Direction {deg}
  0,                                      ! Sky Clearness
  0,                                      ! Rain Indicator
  0,                                      ! Snow Indicator
  21,                                     ! Day of Month
  7,                                      ! Month
  SummerDesignDay,                        ! Day Type
  0,                                      ! Daylight Saving Time Indicator
  Enthalpy,                               ! Humidity Indicating Type
  ,                                       ! Humidity Indicating Day Schedule Name
  DefaultMultipliers,                     ! Dry-Bulb Temperature Range Modifier Type
  ,                                       ! Dry-Bulb Temperature Range Modifier Schedule Name
  ASHRAETau,                              ! Solar Model Indicator
  ,                                       ! Beam Solar Day Schedule Name
  ,                                       ! Diffuse Solar Day Schedule Name
  0.387,                                  ! ASHRAE Taub {dimensionless}
  2.212;                                  ! ASHRAE Taud {dimensionless}

OS:ComponentData,
  {e1409111-9b89-4b44-af31-c1577697ffcb}, ! Handle
  Component Data 1,                       ! Name
  {80e38f7a-0baa-4f36-9447-057ffc71015e}, ! UUID
  {9d23ab85-71be-47d8-844c-10cb7cc20737}, ! Version UUID
  1366305252,                             ! Creation Timestamp
  1366305252,                             ! Version Timestamp
  {ceab40bd-68e2-41ee-a688-97c14a378759}; ! Name of Object 1

