
OS:Version,
  {3568567a-76ca-490e-88a6-4a4c344964e4}, ! Handle
  0.9.3;                                  ! Version Identifier

OS:SizingPeriod:DesignDay,
  {b847ab5a-789e-41eb-8d0e-d929e4d9de55}, ! Handle
  Knoxville Ann Htg 99% Condns DB,        ! Name
  -6.6,                                   ! Maximum Dry-Bulb Temperature {C}
  0,                                      ! Daily Dry-Bulb Temperature Range {deltaC}
  -6.6,                                   ! Humidity Indicating Conditions at Maximum Dry-Bulb {BasedOnField A3}
  97784,                                  ! Barometric Pressure {Pa}
  2.8,                                    ! Wind Speed {m/s}
  20,                                     ! Wind Direction {deg}
  0,                                      ! Sky Clearness
  0,                                      ! Rain Indicator
  0,                                      ! Snow Indicator
  21,                                     ! Day of Month
  1,                                      ! Month
  WinterDesignDay,                        ! Day Type
  0,                                      ! Daylight Saving Time Indicator
  Wetbulb,                                ! Humidity Indicating Type
  ,                                       ! Humidity Indicating Day Schedule Name
  DefaultMultipliers,                     ! Dry-Bulb Temperature Range Modifier Type
  ,                                       ! Dry-Bulb Temperature Range Modifier Schedule Name
  ASHRAEClearSky;                         ! Solar Model Indicator

OS:ComponentData,
  {b08de755-b4ec-4411-a6e9-0d0a27ae42c1}, ! Handle
  Component Data 1,                       ! Name
  {6e7f934b-89a3-41c2-970e-3964fa85f4e9}, ! UUID
  {7e1a3db2-e14a-4949-afde-ccd5dcc90966}, ! Version UUID
  1366310508,                             ! Creation Timestamp
  1366310508,                             ! Version Timestamp
  {b847ab5a-789e-41eb-8d0e-d929e4d9de55}; ! Name of Object 1

