
OS:Version,
  {5867a8a4-689e-4037-a64e-b9683194b07e}, ! Handle
  0.9.3;                                  ! Version Identifier

OS:SizingPeriod:DesignDay,
  {b439322d-8e36-494d-ba21-62a0831fd997}, ! Handle
  BETHEL Ann Clg 2% Condns Enth=>MDB,     ! Name
  17.4,                                   ! Maximum Dry-Bulb Temperature {C}
  7.7,                                    ! Daily Dry-Bulb Temperature Range {deltaC}
  39100,                                  ! Humidity Indicating Conditions at Maximum Dry-Bulb {BasedOnField A3}
  100774,                                 ! Barometric Pressure {Pa}
  4.9,                                    ! Wind Speed {m/s}
  10,                                     ! Wind Direction {deg}
  0,                                      ! Sky Clearness
  0,                                      ! Rain Indicator
  0,                                      ! Snow Indicator
  21,                                     ! Day of Month
  7,                                      ! Month
  SummerDesignDay,                        ! Day Type
  0,                                      ! Daylight Saving Time Indicator
  Enthalpy,                               ! Humidity Indicating Type
  ,                                       ! Humidity Indicating Day Schedule Name
  DefaultMultipliers,                     ! Dry-Bulb Temperature Range Modifier Type
  ,                                       ! Dry-Bulb Temperature Range Modifier Schedule Name
  ASHRAETau,                              ! Solar Model Indicator
  ,                                       ! Beam Solar Day Schedule Name
  ,                                       ! Diffuse Solar Day Schedule Name
  0.383,                                  ! ASHRAE Taub {dimensionless}
  2.185;                                  ! ASHRAE Taud {dimensionless}

OS:ComponentData,
  {7c9ea33b-40f4-486b-a6fa-e62c5f705a5e}, ! Handle
  Component Data 1,                       ! Name
  {e455c27a-a67e-464e-9850-36439bfe7072}, ! UUID
  {20875424-d380-4c47-9419-6b47130ece24}, ! Version UUID
  1366304749,                             ! Creation Timestamp
  1366304749,                             ! Version Timestamp
  {b439322d-8e36-494d-ba21-62a0831fd997}; ! Name of Object 1

