
OS:Version,
  {9886343b-1b57-4dd4-9233-89b65d60ade5}, ! Handle
  0.9.3;                                  ! Version Identifier

OS:SizingPeriod:DesignDay,
  {b756a7a9-c0f1-4a72-be60-35d3a2491b26}, ! Handle
  La Crosse Municipal Arpt Ann Clg 2% Condns DP=>MDB, ! Name
  26.5,                                   ! Maximum Dry-Bulb Temperature {C}
  11.1,                                   ! Daily Dry-Bulb Temperature Range {deltaC}
  21.9,                                   ! Humidity Indicating Conditions at Maximum Dry-Bulb {BasedOnField A3}
  98969,                                  ! Barometric Pressure {Pa}
  5.4,                                    ! Wind Speed {m/s}
  180,                                    ! Wind Direction {deg}
  0,                                      ! Sky Clearness
  0,                                      ! Rain Indicator
  0,                                      ! Snow Indicator
  21,                                     ! Day of Month
  7,                                      ! Month
  SummerDesignDay,                        ! Day Type
  0,                                      ! Daylight Saving Time Indicator
  Dewpoint,                               ! Humidity Indicating Type
  ,                                       ! Humidity Indicating Day Schedule Name
  DefaultMultipliers,                     ! Dry-Bulb Temperature Range Modifier Type
  ,                                       ! Dry-Bulb Temperature Range Modifier Schedule Name
  ASHRAETau,                              ! Solar Model Indicator
  ,                                       ! Beam Solar Day Schedule Name
  ,                                       ! Diffuse Solar Day Schedule Name
  0.431,                                  ! ASHRAE Taub {dimensionless}
  2.126;                                  ! ASHRAE Taud {dimensionless}

OS:ComponentData,
  {346312b6-044b-4db7-bb16-09a89568dcf8}, ! Handle
  Component Data 1,                       ! Name
  {a503a94b-edb6-4166-9cf1-4647db3a823d}, ! UUID
  {d8617a03-4036-4ae0-9b61-192a7f23114c}, ! Version UUID
  1366311515,                             ! Creation Timestamp
  1366311515,                             ! Version Timestamp
  {b756a7a9-c0f1-4a72-be60-35d3a2491b26}; ! Name of Object 1

