
OS:Version,
  {0fc8ca17-7ef6-426a-9f92-f4e0f44a0fbe}, ! Handle
  0.9.3;                                  ! Version Identifier

OS:SizingPeriod:DesignDay,
  {397fab38-86a3-4905-8f7d-0ffbe6d18bac}, ! Handle
  Kahului Airport Ann Clg 1% Condns Enth=>MDB, ! Name
  29.4,                                   ! Maximum Dry-Bulb Temperature {C}
  8.3,                                    ! Daily Dry-Bulb Temperature Range {deltaC}
  73900,                                  ! Humidity Indicating Conditions at Maximum Dry-Bulb {BasedOnField A3}
  101133,                                 ! Barometric Pressure {Pa}
  7.9,                                    ! Wind Speed {m/s}
  60,                                     ! Wind Direction {deg}
  0,                                      ! Sky Clearness
  0,                                      ! Rain Indicator
  0,                                      ! Snow Indicator
  21,                                     ! Day of Month
  8,                                      ! Month
  SummerDesignDay,                        ! Day Type
  0,                                      ! Daylight Saving Time Indicator
  Enthalpy,                               ! Humidity Indicating Type
  ,                                       ! Humidity Indicating Day Schedule Name
  DefaultMultipliers,                     ! Dry-Bulb Temperature Range Modifier Type
  ,                                       ! Dry-Bulb Temperature Range Modifier Schedule Name
  ASHRAETau,                              ! Solar Model Indicator
  ,                                       ! Beam Solar Day Schedule Name
  ,                                       ! Diffuse Solar Day Schedule Name
  0.383,                                  ! ASHRAE Taub {dimensionless}
  2.519;                                  ! ASHRAE Taud {dimensionless}

OS:ComponentData,
  {21960bc5-0dac-4a41-8002-364a344bc260}, ! Handle
  Component Data 1,                       ! Name
  {b42a5a05-66b0-4e2e-9a10-03f69fad8ed4}, ! UUID
  {e48f5d9e-5548-4776-a999-870903e4ec69}, ! Version UUID
  1366307101,                             ! Creation Timestamp
  1366307101,                             ! Version Timestamp
  {397fab38-86a3-4905-8f7d-0ffbe6d18bac}; ! Name of Object 1

