
OS:Version,
  {ed5ad4c8-d500-4a3a-bf41-70d92edaeab0}, ! Handle
  0.9.3;                                  ! Version Identifier

OS:SizingPeriod:DesignDay,
  {634eead8-747d-481a-892f-88ab7e2dda78}, ! Handle
  Dubuque Regional Ap Ann Hum_n 99.6% Condns DP=>MCDB, ! Name
  -21.6,                                  ! Maximum Dry-Bulb Temperature {C}
  0,                                      ! Daily Dry-Bulb Temperature Range {deltaC}
  -26.2,                                  ! Humidity Indicating Conditions at Maximum Dry-Bulb {BasedOnField A3}
  97516,                                  ! Barometric Pressure {Pa}
  4.2,                                    ! Wind Speed {m/s}
  300,                                    ! Wind Direction {deg}
  0,                                      ! Sky Clearness
  0,                                      ! Rain Indicator
  0,                                      ! Snow Indicator
  21,                                     ! Day of Month
  1,                                      ! Month
  WinterDesignDay,                        ! Day Type
  0,                                      ! Daylight Saving Time Indicator
  Dewpoint,                               ! Humidity Indicating Type
  ,                                       ! Humidity Indicating Day Schedule Name
  DefaultMultipliers,                     ! Dry-Bulb Temperature Range Modifier Type
  ,                                       ! Dry-Bulb Temperature Range Modifier Schedule Name
  ASHRAEClearSky;                         ! Solar Model Indicator

OS:ComponentData,
  {4b1d8981-451c-4d1c-8287-3df17a681a2e}, ! Handle
  Component Data 1,                       ! Name
  {fd85ed7e-8948-4035-ac21-ac5c26e0bc69}, ! UUID
  {f0a3813a-aba2-4132-9ad5-ef6e020dd59f}, ! Version UUID
  1366307184,                             ! Creation Timestamp
  1366307184,                             ! Version Timestamp
  {634eead8-747d-481a-892f-88ab7e2dda78}; ! Name of Object 1

