
OS:Version,
  {e9d16ccc-0021-4985-ac30-01c154220a9f}, ! Handle
  0.9.3;                                  ! Version Identifier

OS:SizingPeriod:DesignDay,
  {b589daf4-f6ce-4ec5-89c6-eaaa4dcf924d}, ! Handle
  LONG_BEACH Ann Clg 2% Condns DB=>MWB,   ! Name
  29.1,                                   ! Maximum Dry-Bulb Temperature {C}
  9.5,                                    ! Daily Dry-Bulb Temperature Range {deltaC}
  19.1,                                   ! Humidity Indicating Conditions at Maximum Dry-Bulb {BasedOnField A3}
  101121,                                 ! Barometric Pressure {Pa}
  4.1,                                    ! Wind Speed {m/s}
  280,                                    ! Wind Direction {deg}
  0,                                      ! Sky Clearness
  0,                                      ! Rain Indicator
  0,                                      ! Snow Indicator
  21,                                     ! Day of Month
  8,                                      ! Month
  SummerDesignDay,                        ! Day Type
  0,                                      ! Daylight Saving Time Indicator
  Wetbulb,                                ! Humidity Indicating Type
  ,                                       ! Humidity Indicating Day Schedule Name
  DefaultMultipliers,                     ! Dry-Bulb Temperature Range Modifier Type
  ,                                       ! Dry-Bulb Temperature Range Modifier Schedule Name
  ASHRAETau,                              ! Solar Model Indicator
  ,                                       ! Beam Solar Day Schedule Name
  ,                                       ! Diffuse Solar Day Schedule Name
  0.45,                                   ! ASHRAE Taub {dimensionless}
  2.074;                                  ! ASHRAE Taud {dimensionless}

OS:ComponentData,
  {d457f23a-0102-45c8-948a-11e24fa2fffa}, ! Handle
  Component Data 1,                       ! Name
  {c4aa95dc-7b6c-42c4-9b6c-fd91198777f6}, ! UUID
  {55e466ab-a478-4061-902b-f67ba0d4e2dd}, ! Version UUID
  1366306475,                             ! Creation Timestamp
  1366306475,                             ! Version Timestamp
  {b589daf4-f6ce-4ec5-89c6-eaaa4dcf924d}; ! Name of Object 1

