
OS:Version,
  {617b4e57-ee3b-4e74-8e90-6388da206318}, ! Handle
  0.9.3;                                  ! Version Identifier

OS:SizingPeriod:DesignDay,
  {4366ebea-01da-420f-b8ea-38f26d1d0efa}, ! Handle
  Block Island State Arpt Ann Htg 99% Condns DB, ! Name
  -8.8,                                   ! Maximum Dry-Bulb Temperature {C}
  0,                                      ! Daily Dry-Bulb Temperature Range {deltaC}
  -8.8,                                   ! Humidity Indicating Conditions at Maximum Dry-Bulb {BasedOnField A3}
  100917,                                 ! Barometric Pressure {Pa}
  6.3,                                    ! Wind Speed {m/s}
  310,                                    ! Wind Direction {deg}
  0,                                      ! Sky Clearness
  0,                                      ! Rain Indicator
  0,                                      ! Snow Indicator
  21,                                     ! Day of Month
  1,                                      ! Month
  WinterDesignDay,                        ! Day Type
  0,                                      ! Daylight Saving Time Indicator
  Wetbulb,                                ! Humidity Indicating Type
  ,                                       ! Humidity Indicating Day Schedule Name
  DefaultMultipliers,                     ! Dry-Bulb Temperature Range Modifier Type
  ,                                       ! Dry-Bulb Temperature Range Modifier Schedule Name
  ASHRAEClearSky;                         ! Solar Model Indicator

OS:ComponentData,
  {629fdffb-ae75-401d-9719-5618e4982010}, ! Handle
  Component Data 1,                       ! Name
  {02f4e389-09ba-49c6-892f-1d4018b5a843}, ! UUID
  {68b5847c-86aa-4852-9aed-0ccdf17f076d}, ! Version UUID
  1366310288,                             ! Creation Timestamp
  1366310288,                             ! Version Timestamp
  {4366ebea-01da-420f-b8ea-38f26d1d0efa}; ! Name of Object 1

