
OS:Version,
  {136a3642-40b6-4930-9343-86697ee7ede8}, ! Handle
  0.9.3;                                  ! Version Identifier

OS:SizingPeriod:DesignDay,
  {911ac97a-600e-43a6-ae97-d2aeea013aed}, ! Handle
  Jackson Hole Ann Clg .4% Condns DB=>MWB, ! Name
  28.9,                                   ! Maximum Dry-Bulb Temperature {C}
  19,                                     ! Daily Dry-Bulb Temperature Range {deltaC}
  12.9,                                   ! Humidity Indicating Conditions at Maximum Dry-Bulb {BasedOnField A3}
  79337,                                  ! Barometric Pressure {Pa}
  5,                                      ! Wind Speed {m/s}
  250,                                    ! Wind Direction {deg}
  0,                                      ! Sky Clearness
  0,                                      ! Rain Indicator
  0,                                      ! Snow Indicator
  21,                                     ! Day of Month
  7,                                      ! Month
  SummerDesignDay,                        ! Day Type
  0,                                      ! Daylight Saving Time Indicator
  Wetbulb,                                ! Humidity Indicating Type
  ,                                       ! Humidity Indicating Day Schedule Name
  DefaultMultipliers,                     ! Dry-Bulb Temperature Range Modifier Type
  ,                                       ! Dry-Bulb Temperature Range Modifier Schedule Name
  ASHRAETau,                              ! Solar Model Indicator
  ,                                       ! Beam Solar Day Schedule Name
  ,                                       ! Diffuse Solar Day Schedule Name
  0.353,                                  ! ASHRAE Taub {dimensionless}
  2.297;                                  ! ASHRAE Taud {dimensionless}

OS:ComponentData,
  {6767b7f3-1855-49bc-b924-988552e30cfa}, ! Handle
  Component Data 1,                       ! Name
  {2129f559-8baf-423c-8e22-a351ac1f7eb2}, ! UUID
  {7eaad40f-75aa-4b22-b270-9b942618d2e7}, ! Version UUID
  1366311744,                             ! Creation Timestamp
  1366311744,                             ! Version Timestamp
  {911ac97a-600e-43a6-ae97-d2aeea013aed}; ! Name of Object 1

