
OS:Version,
  {dbeab51e-8982-4ab5-ac48-9a29954cf8d2}, ! Handle
  0.9.3;                                  ! Version Identifier

OS:SizingPeriod:DesignDay,
  {6e21eab2-4e9f-4686-949d-079685cee057}, ! Handle
  HILO Ann Clg 2% Condns DB=>MWB,         ! Name
  28.8,                                   ! Maximum Dry-Bulb Temperature {C}
  7,                                      ! Daily Dry-Bulb Temperature Range {deltaC}
  23.2,                                   ! Humidity Indicating Conditions at Maximum Dry-Bulb {BasedOnField A3}
  101193,                                 ! Barometric Pressure {Pa}
  4.8,                                    ! Wind Speed {m/s}
  90,                                     ! Wind Direction {deg}
  0,                                      ! Sky Clearness
  0,                                      ! Rain Indicator
  0,                                      ! Snow Indicator
  21,                                     ! Day of Month
  8,                                      ! Month
  SummerDesignDay,                        ! Day Type
  0,                                      ! Daylight Saving Time Indicator
  Wetbulb,                                ! Humidity Indicating Type
  ,                                       ! Humidity Indicating Day Schedule Name
  DefaultMultipliers,                     ! Dry-Bulb Temperature Range Modifier Type
  ,                                       ! Dry-Bulb Temperature Range Modifier Schedule Name
  ASHRAETau,                              ! Solar Model Indicator
  ,                                       ! Beam Solar Day Schedule Name
  ,                                       ! Diffuse Solar Day Schedule Name
  0.411,                                  ! ASHRAE Taub {dimensionless}
  2.427;                                  ! ASHRAE Taud {dimensionless}

OS:ComponentData,
  {b5669583-03a1-4fe5-997a-e32831231bbe}, ! Handle
  Component Data 1,                       ! Name
  {989b2305-4fa7-44bf-9a84-9c9bf4cd4a04}, ! UUID
  {f2f29af9-ec7c-412d-918c-14fa124f5cd9}, ! Version UUID
  1366307077,                             ! Creation Timestamp
  1366307077,                             ! Version Timestamp
  {6e21eab2-4e9f-4686-949d-079685cee057}; ! Name of Object 1

