
OS:Version,
  {b681cfb8-d3ff-4fa6-bf3a-2f71c35a8bbb}, ! Handle
  0.9.3;                                  ! Version Identifier

OS:SizingPeriod:DesignDay,
  {40f3c97a-548a-4d16-b63f-439c5651dfa7}, ! Handle
  Knoxville Ann Clg 1% Condns Enth=>MDB,  ! Name
  30.4,                                   ! Maximum Dry-Bulb Temperature {C}
  10.4,                                   ! Daily Dry-Bulb Temperature Range {deltaC}
  75200,                                  ! Humidity Indicating Conditions at Maximum Dry-Bulb {BasedOnField A3}
  97784,                                  ! Barometric Pressure {Pa}
  3.2,                                    ! Wind Speed {m/s}
  250,                                    ! Wind Direction {deg}
  0,                                      ! Sky Clearness
  0,                                      ! Rain Indicator
  0,                                      ! Snow Indicator
  21,                                     ! Day of Month
  7,                                      ! Month
  SummerDesignDay,                        ! Day Type
  0,                                      ! Daylight Saving Time Indicator
  Enthalpy,                               ! Humidity Indicating Type
  ,                                       ! Humidity Indicating Day Schedule Name
  DefaultMultipliers,                     ! Dry-Bulb Temperature Range Modifier Type
  ,                                       ! Dry-Bulb Temperature Range Modifier Schedule Name
  ASHRAETau,                              ! Solar Model Indicator
  ,                                       ! Beam Solar Day Schedule Name
  ,                                       ! Diffuse Solar Day Schedule Name
  0.547,                                  ! ASHRAE Taub {dimensionless}
  1.786;                                  ! ASHRAE Taud {dimensionless}

