
OS:Version,
  {82209587-639b-430c-a9c5-b4eaeea3590a}, ! Handle
  0.9.3;                                  ! Version Identifier

OS:SizingPeriod:DesignDay,
  {e03077bb-ee66-4e28-b41e-77acdf0218f1}, ! Handle
  Houlton Intl Arpt Ann Htg Wind 99.6% Condns WS=>MCDB, ! Name
  -5.8,                                   ! Maximum Dry-Bulb Temperature {C}
  0,                                      ! Daily Dry-Bulb Temperature Range {deltaC}
  -5.8,                                   ! Humidity Indicating Conditions at Maximum Dry-Bulb {BasedOnField A3}
  99536,                                  ! Barometric Pressure {Pa}
  10.3,                                   ! Wind Speed {m/s}
  200,                                    ! Wind Direction {deg}
  0,                                      ! Sky Clearness
  0,                                      ! Rain Indicator
  0,                                      ! Snow Indicator
  21,                                     ! Day of Month
  1,                                      ! Month
  WinterDesignDay,                        ! Day Type
  0,                                      ! Daylight Saving Time Indicator
  Wetbulb,                                ! Humidity Indicating Type
  ,                                       ! Humidity Indicating Day Schedule Name
  DefaultMultipliers,                     ! Dry-Bulb Temperature Range Modifier Type
  ,                                       ! Dry-Bulb Temperature Range Modifier Schedule Name
  ASHRAEClearSky;                         ! Solar Model Indicator

OS:ComponentData,
  {2aa3a2ec-432a-4e3f-a8e8-f3f1255d48ad}, ! Handle
  Component Data 1,                       ! Name
  {d46dcb08-3011-4533-ac0f-258e13ae99d7}, ! UUID
  {e66ccb93-fca4-4da5-9826-422be4093162}, ! Version UUID
  1366307901,                             ! Creation Timestamp
  1366307901,                             ! Version Timestamp
  {e03077bb-ee66-4e28-b41e-77acdf0218f1}; ! Name of Object 1

