
OS:Version,
  {7546c646-22ea-40c7-92c2-549afc8f39b1}, ! Handle
  0.9.3;                                  ! Version Identifier

OS:SizingPeriod:DesignDay,
  {2aa6f941-6547-42c5-9fc4-d4dd193cb5be}, ! Handle
  Jacksonville  Awos Ann Clg 1% Condns Enth=>MDB, ! Name
  31.6,                                   ! Maximum Dry-Bulb Temperature {C}
  10.6,                                   ! Daily Dry-Bulb Temperature Range {deltaC}
  77800,                                  ! Humidity Indicating Conditions at Maximum Dry-Bulb {BasedOnField A3}
  100977,                                 ! Barometric Pressure {Pa}
  3.7,                                    ! Wind Speed {m/s}
  230,                                    ! Wind Direction {deg}
  0,                                      ! Sky Clearness
  0,                                      ! Rain Indicator
  0,                                      ! Snow Indicator
  21,                                     ! Day of Month
  7,                                      ! Month
  SummerDesignDay,                        ! Day Type
  0,                                      ! Daylight Saving Time Indicator
  Enthalpy,                               ! Humidity Indicating Type
  ,                                       ! Humidity Indicating Day Schedule Name
  DefaultMultipliers,                     ! Dry-Bulb Temperature Range Modifier Type
  ,                                       ! Dry-Bulb Temperature Range Modifier Schedule Name
  ASHRAETau,                              ! Solar Model Indicator
  ,                                       ! Beam Solar Day Schedule Name
  ,                                       ! Diffuse Solar Day Schedule Name
  0.594,                                  ! ASHRAE Taub {dimensionless}
  1.701;                                  ! ASHRAE Taud {dimensionless}

OS:ComponentData,
  {36403bf4-2164-4e3b-a787-97a4b6e8262f}, ! Handle
  Component Data 1,                       ! Name
  {d8a16fb4-b3f4-487a-bc2c-52b4281317fc}, ! UUID
  {01c3584c-5bd4-4e5f-a263-7ea042a84e49}, ! Version UUID
  1366308946,                             ! Creation Timestamp
  1366308946,                             ! Version Timestamp
  {2aa6f941-6547-42c5-9fc4-d4dd193cb5be}; ! Name of Object 1

