
OS:Version,
  {a76dd717-c311-48ac-bccb-47427de04df4}, ! Handle
  0.9.3;                                  ! Version Identifier

OS:SizingPeriod:DesignDay,
  {320c8f74-fd93-429b-b63e-62606e33d9dc}, ! Handle
  DETROIT Ann Clg 2% Condns WB=>MDB,      ! Name
  27.5,                                   ! Maximum Dry-Bulb Temperature {C}
  10.4,                                   ! Daily Dry-Bulb Temperature Range {deltaC}
  23,                                     ! Humidity Indicating Conditions at Maximum Dry-Bulb {BasedOnField A3}
  99051,                                  ! Barometric Pressure {Pa}
  5.9,                                    ! Wind Speed {m/s}
  240,                                    ! Wind Direction {deg}
  0,                                      ! Sky Clearness
  0,                                      ! Rain Indicator
  0,                                      ! Snow Indicator
  21,                                     ! Day of Month
  7,                                      ! Month
  SummerDesignDay,                        ! Day Type
  0,                                      ! Daylight Saving Time Indicator
  Wetbulb,                                ! Humidity Indicating Type
  ,                                       ! Humidity Indicating Day Schedule Name
  DefaultMultipliers,                     ! Dry-Bulb Temperature Range Modifier Type
  ,                                       ! Dry-Bulb Temperature Range Modifier Schedule Name
  ASHRAETau,                              ! Solar Model Indicator
  ,                                       ! Beam Solar Day Schedule Name
  ,                                       ! Diffuse Solar Day Schedule Name
  0.47,                                   ! ASHRAE Taub {dimensionless}
  1.978;                                  ! ASHRAE Taud {dimensionless}

OS:ComponentData,
  {f9b09734-4826-4f6d-9ca2-e63048df5ec8}, ! Handle
  Component Data 1,                       ! Name
  {de4cece7-19f5-4fbb-9c62-89955898ec2a}, ! UUID
  {a28a607c-fd81-41a4-84a8-0fde4aed7425}, ! Version UUID
  1366307980,                             ! Creation Timestamp
  1366307980,                             ! Version Timestamp
  {320c8f74-fd93-429b-b63e-62606e33d9dc}; ! Name of Object 1

