
OS:Version,
  {7b2e24bd-03c9-4f92-8041-b47880d9886f}, ! Handle
  0.9.3;                                  ! Version Identifier

OS:SizingPeriod:DesignDay,
  {82e3a7a4-df6f-450a-82d1-25568de1ca8d}, ! Handle
  BRADFORD Ann Clg 2% Condns WB=>MDB,     ! Name
  24,                                     ! Maximum Dry-Bulb Temperature {C}
  11.9,                                   ! Daily Dry-Bulb Temperature Range {deltaC}
  20.4,                                   ! Humidity Indicating Conditions at Maximum Dry-Bulb {BasedOnField A3}
  94322,                                  ! Barometric Pressure {Pa}
  4.1,                                    ! Wind Speed {m/s}
  270,                                    ! Wind Direction {deg}
  0,                                      ! Sky Clearness
  0,                                      ! Rain Indicator
  0,                                      ! Snow Indicator
  21,                                     ! Day of Month
  7,                                      ! Month
  SummerDesignDay,                        ! Day Type
  0,                                      ! Daylight Saving Time Indicator
  Wetbulb,                                ! Humidity Indicating Type
  ,                                       ! Humidity Indicating Day Schedule Name
  DefaultMultipliers,                     ! Dry-Bulb Temperature Range Modifier Type
  ,                                       ! Dry-Bulb Temperature Range Modifier Schedule Name
  ASHRAETau,                              ! Solar Model Indicator
  ,                                       ! Beam Solar Day Schedule Name
  ,                                       ! Diffuse Solar Day Schedule Name
  0.423,                                  ! ASHRAE Taub {dimensionless}
  2.114;                                  ! ASHRAE Taud {dimensionless}

OS:ComponentData,
  {1d6f2311-d89a-4544-8d8a-31e11d0b1357}, ! Handle
  Component Data 1,                       ! Name
  {aff993ce-c0c0-41e2-bbab-81b058f67f66}, ! UUID
  {7b814811-4a5d-46ed-8560-d74862222aa6}, ! Version UUID
  1366310145,                             ! Creation Timestamp
  1366310145,                             ! Version Timestamp
  {82e3a7a4-df6f-450a-82d1-25568de1ca8d}; ! Name of Object 1

