
OS:Version,
  {a3cb15c8-c897-4653-8adb-65bdece13b20}, ! Handle
  0.9.3;                                  ! Version Identifier

OS:SizingPeriod:DesignDay,
  {109a65f9-a25e-48ba-9183-6af0ae6f62b8}, ! Handle
  Crestview Bob Sikes Ap Ann Htg Wind 99.6% Condns WS=>MCDB, ! Name
  12.9,                                   ! Maximum Dry-Bulb Temperature {C}
  0,                                      ! Daily Dry-Bulb Temperature Range {deltaC}
  12.9,                                   ! Humidity Indicating Conditions at Maximum Dry-Bulb {BasedOnField A3}
  100630,                                 ! Barometric Pressure {Pa}
  8.7,                                    ! Wind Speed {m/s}
  0,                                      ! Wind Direction {deg}
  0,                                      ! Sky Clearness
  0,                                      ! Rain Indicator
  0,                                      ! Snow Indicator
  21,                                     ! Day of Month
  1,                                      ! Month
  WinterDesignDay,                        ! Day Type
  0,                                      ! Daylight Saving Time Indicator
  Wetbulb,                                ! Humidity Indicating Type
  ,                                       ! Humidity Indicating Day Schedule Name
  DefaultMultipliers,                     ! Dry-Bulb Temperature Range Modifier Type
  ,                                       ! Dry-Bulb Temperature Range Modifier Schedule Name
  ASHRAEClearSky;                         ! Solar Model Indicator

OS:ComponentData,
  {3e0e66b3-38c0-4328-aec3-89d1531eb562}, ! Handle
  Component Data 1,                       ! Name
  {bc80e24e-9451-4142-b60d-2aabc8cf33f8}, ! UUID
  {8b371e50-8060-4e25-a7fe-079af28fcb5e}, ! Version UUID
  1366306783,                             ! Creation Timestamp
  1366306783,                             ! Version Timestamp
  {109a65f9-a25e-48ba-9183-6af0ae6f62b8}; ! Name of Object 1

