
OS:Version,
  {1dceac14-593f-4049-b2f8-2fb4862f6633}, ! Handle
  0.9.3;                                  ! Version Identifier

OS:SizingPeriod:DesignDay,
  {3701d54f-d090-4040-9139-1c732c38b6ba}, ! Handle
  AUSTIN Ann Htg Wind 99% Condns WS=>MCDB, ! Name
  9,                                      ! Maximum Dry-Bulb Temperature {C}
  0,                                      ! Daily Dry-Bulb Temperature Range {deltaC}
  9,                                      ! Humidity Indicating Conditions at Maximum Dry-Bulb {BasedOnField A3}
  99075,                                  ! Barometric Pressure {Pa}
  10.6,                                   ! Wind Speed {m/s}
  10,                                     ! Wind Direction {deg}
  0,                                      ! Sky Clearness
  0,                                      ! Rain Indicator
  0,                                      ! Snow Indicator
  21,                                     ! Day of Month
  1,                                      ! Month
  WinterDesignDay,                        ! Day Type
  0,                                      ! Daylight Saving Time Indicator
  Wetbulb,                                ! Humidity Indicating Type
  ,                                       ! Humidity Indicating Day Schedule Name
  DefaultMultipliers,                     ! Dry-Bulb Temperature Range Modifier Type
  ,                                       ! Dry-Bulb Temperature Range Modifier Schedule Name
  ASHRAEClearSky;                         ! Solar Model Indicator

OS:ComponentData,
  {934d71d3-47d3-4b2a-880e-46bde3028193}, ! Handle
  Component Data 1,                       ! Name
  {026babf0-951d-4289-9eb1-ccc256dd872b}, ! UUID
  {e406a0d2-d8ce-4df6-9974-d65b77bcd208}, ! Version UUID
  1366310589,                             ! Creation Timestamp
  1366310589,                             ! Version Timestamp
  {3701d54f-d090-4040-9139-1c732c38b6ba}; ! Name of Object 1

