
OS:Version,
  {d9121e7c-437d-4d66-a5d3-d397e183bfed}, ! Handle
  0.9.3;                                  ! Version Identifier

OS:SizingPeriod:DesignDay,
  {86e1e384-ba8b-48c8-b26e-4bde149a8be9}, ! Handle
  Detroit/City Ann Htg 99% Condns DB,     ! Name
  -12.9,                                  ! Maximum Dry-Bulb Temperature {C}
  0,                                      ! Daily Dry-Bulb Temperature Range {deltaC}
  -12.9,                                  ! Humidity Indicating Conditions at Maximum Dry-Bulb {BasedOnField A3}
  99063,                                  ! Barometric Pressure {Pa}
  4.4,                                    ! Wind Speed {m/s}
  250,                                    ! Wind Direction {deg}
  0,                                      ! Sky Clearness
  0,                                      ! Rain Indicator
  0,                                      ! Snow Indicator
  21,                                     ! Day of Month
  1,                                      ! Month
  WinterDesignDay,                        ! Day Type
  0,                                      ! Daylight Saving Time Indicator
  Wetbulb,                                ! Humidity Indicating Type
  ,                                       ! Humidity Indicating Day Schedule Name
  DefaultMultipliers,                     ! Dry-Bulb Temperature Range Modifier Type
  ,                                       ! Dry-Bulb Temperature Range Modifier Schedule Name
  ASHRAEClearSky;                         ! Solar Model Indicator

OS:ComponentData,
  {79636e83-8c22-4485-bad3-4a33077a8ff5}, ! Handle
  Component Data 1,                       ! Name
  {2f41f9ce-e41f-4443-8e76-fb3983c471b4}, ! UUID
  {1080f3bf-9358-4bc0-b8cc-9ae8919f0a60}, ! Version UUID
  1366307971,                             ! Creation Timestamp
  1366307971,                             ! Version Timestamp
  {86e1e384-ba8b-48c8-b26e-4bde149a8be9}; ! Name of Object 1

