
OS:Version,
  {134a82cb-fb40-4316-95a3-9b99deb366f0}, ! Handle
  0.9.3;                                  ! Version Identifier

OS:SizingPeriod:DesignDay,
  {0772f4d2-df46-4c20-a76d-286845bb6182}, ! Handle
  College Station Easterwood Fl Ann Htg Wind 99% Condns WS=>MCDB, ! Name
  11,                                     ! Maximum Dry-Bulb Temperature {C}
  0,                                      ! Daily Dry-Bulb Temperature Range {deltaC}
  11,                                     ! Humidity Indicating Conditions at Maximum Dry-Bulb {BasedOnField A3}
  100177,                                 ! Barometric Pressure {Pa}
  9.2,                                    ! Wind Speed {m/s}
  350,                                    ! Wind Direction {deg}
  0,                                      ! Sky Clearness
  0,                                      ! Rain Indicator
  0,                                      ! Snow Indicator
  21,                                     ! Day of Month
  1,                                      ! Month
  WinterDesignDay,                        ! Day Type
  0,                                      ! Daylight Saving Time Indicator
  Wetbulb,                                ! Humidity Indicating Type
  ,                                       ! Humidity Indicating Day Schedule Name
  DefaultMultipliers,                     ! Dry-Bulb Temperature Range Modifier Type
  ,                                       ! Dry-Bulb Temperature Range Modifier Schedule Name
  ASHRAEClearSky;                         ! Solar Model Indicator

OS:ComponentData,
  {b2bfcde0-6155-4b0f-9d5a-92a82e7e3739}, ! Handle
  Component Data 1,                       ! Name
  {37ae9dca-ab1f-41aa-92dd-3746ace5efc4}, ! UUID
  {d6b00e0d-ccee-43b0-be47-0ee261f6a5bf}, ! Version UUID
  1366310617,                             ! Creation Timestamp
  1366310617,                             ! Version Timestamp
  {0772f4d2-df46-4c20-a76d-286845bb6182}; ! Name of Object 1

