
OS:Version,
  {2eb0e440-0aa9-4e10-b6fd-5dc2f39b4dfd}, ! Handle
  0.9.3;                                  ! Version Identifier

OS:SizingPeriod:DesignDay,
  {fe4df7cf-6936-4442-a886-445e4ce61abe}, ! Handle
  Clayton Ann Hum_n 99.6% Condns DP=>MCDB, ! Name
  -7.7,                                   ! Maximum Dry-Bulb Temperature {C}
  0,                                      ! Daily Dry-Bulb Temperature Range {deltaC}
  -20.2,                                  ! Humidity Indicating Conditions at Maximum Dry-Bulb {BasedOnField A3}
  84442,                                  ! Barometric Pressure {Pa}
  4.2,                                    ! Wind Speed {m/s}
  30,                                     ! Wind Direction {deg}
  0,                                      ! Sky Clearness
  0,                                      ! Rain Indicator
  0,                                      ! Snow Indicator
  21,                                     ! Day of Month
  12,                                     ! Month
  WinterDesignDay,                        ! Day Type
  0,                                      ! Daylight Saving Time Indicator
  Dewpoint,                               ! Humidity Indicating Type
  ,                                       ! Humidity Indicating Day Schedule Name
  DefaultMultipliers,                     ! Dry-Bulb Temperature Range Modifier Type
  ,                                       ! Dry-Bulb Temperature Range Modifier Schedule Name
  ASHRAEClearSky;                         ! Solar Model Indicator

OS:ComponentData,
  {22d53476-756b-4e6b-b884-42e28f2474c7}, ! Handle
  Component Data 1,                       ! Name
  {8c3b7b62-da6e-4fa3-b1dc-946f317d05da}, ! UUID
  {e1677e06-f22d-410d-9bfd-116d6ac4c6da}, ! Version UUID
  1366309380,                             ! Creation Timestamp
  1366309380,                             ! Version Timestamp
  {fe4df7cf-6936-4442-a886-445e4ce61abe}; ! Name of Object 1

