
OS:Version,
  {8b5b0b16-518f-463f-836e-6351b0874294}, ! Handle
  0.9.3;                                  ! Version Identifier

OS:SizingPeriod:DesignDay,
  {c293005d-53f8-4730-b7b4-618607751c34}, ! Handle
  Kalispell Glacier Pk IntL Ar Ann Htg 99% Condns DB, ! Name
  -18.2,                                  ! Maximum Dry-Bulb Temperature {C}
  0,                                      ! Daily Dry-Bulb Temperature Range {deltaC}
  -18.2,                                  ! Humidity Indicating Conditions at Maximum Dry-Bulb {BasedOnField A3}
  90904,                                  ! Barometric Pressure {Pa}
  2,                                      ! Wind Speed {m/s}
  30,                                     ! Wind Direction {deg}
  0,                                      ! Sky Clearness
  0,                                      ! Rain Indicator
  0,                                      ! Snow Indicator
  21,                                     ! Day of Month
  12,                                     ! Month
  WinterDesignDay,                        ! Day Type
  0,                                      ! Daylight Saving Time Indicator
  Wetbulb,                                ! Humidity Indicating Type
  ,                                       ! Humidity Indicating Day Schedule Name
  DefaultMultipliers,                     ! Dry-Bulb Temperature Range Modifier Type
  ,                                       ! Dry-Bulb Temperature Range Modifier Schedule Name
  ASHRAEClearSky;                         ! Solar Model Indicator

OS:ComponentData,
  {1f29a9e7-8f63-4740-beb1-e5e466107a2c}, ! Handle
  Component Data 1,                       ! Name
  {3e1a8ca6-3a0a-40c3-933c-9a940ae96f38}, ! UUID
  {5887f130-97d6-40b7-b794-a47a51280a00}, ! Version UUID
  1366308801,                             ! Creation Timestamp
  1366308801,                             ! Version Timestamp
  {c293005d-53f8-4730-b7b4-618607751c34}; ! Name of Object 1

