
OS:Version,
  {08170214-31de-4af4-a65f-88fc7c033fde}, ! Handle
  0.9.3;                                  ! Version Identifier

OS:SizingPeriod:DesignDay,
  {c8485eed-18f5-41ba-819c-f148f8919426}, ! Handle
  Lebanon Municipal Ann Clg 1% Condns WB=>MDB, ! Name
  27.3,                                   ! Maximum Dry-Bulb Temperature {C}
  12.9,                                   ! Daily Dry-Bulb Temperature Range {deltaC}
  22.3,                                   ! Humidity Indicating Conditions at Maximum Dry-Bulb {BasedOnField A3}
  99158,                                  ! Barometric Pressure {Pa}
  4,                                      ! Wind Speed {m/s}
  220,                                    ! Wind Direction {deg}
  0,                                      ! Sky Clearness
  0,                                      ! Rain Indicator
  0,                                      ! Snow Indicator
  21,                                     ! Day of Month
  7,                                      ! Month
  SummerDesignDay,                        ! Day Type
  0,                                      ! Daylight Saving Time Indicator
  Wetbulb,                                ! Humidity Indicating Type
  ,                                       ! Humidity Indicating Day Schedule Name
  DefaultMultipliers,                     ! Dry-Bulb Temperature Range Modifier Type
  ,                                       ! Dry-Bulb Temperature Range Modifier Schedule Name
  ASHRAETau,                              ! Solar Model Indicator
  ,                                       ! Beam Solar Day Schedule Name
  ,                                       ! Diffuse Solar Day Schedule Name
  0.443,                                  ! ASHRAE Taub {dimensionless}
  2.066;                                  ! ASHRAE Taud {dimensionless}

OS:ComponentData,
  {71fa213f-ea40-4da3-b9c7-318c04dcd470}, ! Handle
  Component Data 1,                       ! Name
  {cc83188e-c981-42bb-aa92-57378cb15cad}, ! UUID
  {a96fd936-b112-4596-8981-ce84d8452092}, ! Version UUID
  1366309258,                             ! Creation Timestamp
  1366309258,                             ! Version Timestamp
  {c8485eed-18f5-41ba-819c-f148f8919426}; ! Name of Object 1

