
OS:Version,
  {8285f572-c34d-4689-9431-3633294213b4}, ! Handle
  0.9.3;                                  ! Version Identifier

OS:SizingPeriod:DesignDay,
  {afacf662-d126-4de7-835e-30a34cc352e0}, ! Handle
  Clinton Muni  Awos Ann Hum_n 99% Condns DP=>MCDB, ! Name
  -17.4,                                  ! Maximum Dry-Bulb Temperature {C}
  0,                                      ! Daily Dry-Bulb Temperature Range {deltaC}
  -22.4,                                  ! Humidity Indicating Conditions at Maximum Dry-Bulb {BasedOnField A3}
  98757,                                  ! Barometric Pressure {Pa}
  3.9,                                    ! Wind Speed {m/s}
  290,                                    ! Wind Direction {deg}
  0,                                      ! Sky Clearness
  0,                                      ! Rain Indicator
  0,                                      ! Snow Indicator
  21,                                     ! Day of Month
  1,                                      ! Month
  WinterDesignDay,                        ! Day Type
  0,                                      ! Daylight Saving Time Indicator
  Dewpoint,                               ! Humidity Indicating Type
  ,                                       ! Humidity Indicating Day Schedule Name
  DefaultMultipliers,                     ! Dry-Bulb Temperature Range Modifier Type
  ,                                       ! Dry-Bulb Temperature Range Modifier Schedule Name
  ASHRAEClearSky;                         ! Solar Model Indicator

OS:ComponentData,
  {01858556-8b9b-40bc-9788-89c631487782}, ! Handle
  Component Data 1,                       ! Name
  {4c31d8ea-aee6-4547-a672-1ac97183fc1e}, ! UUID
  {1f02c50b-79e1-4e8f-a429-084f3a0955af}, ! Version UUID
  1366307160,                             ! Creation Timestamp
  1366307160,                             ! Version Timestamp
  {afacf662-d126-4de7-835e-30a34cc352e0}; ! Name of Object 1

