
OS:Version,
  {5b4b02e7-a3b9-4753-9ca1-c6bd672e341e}, ! Handle
  0.9.3;                                  ! Version Identifier

OS:SizingPeriod:DesignDay,
  {04b5f737-1324-4fe7-a8ea-db8a7273dbc4}, ! Handle
  Austin Ann Htg 99.6% Condns DB,         ! Name
  -3.8,                                   ! Maximum Dry-Bulb Temperature {C}
  0,                                      ! Daily Dry-Bulb Temperature Range {deltaC}
  -3.8,                                   ! Humidity Indicating Conditions at Maximum Dry-Bulb {BasedOnField A3}
  99075,                                  ! Barometric Pressure {Pa}
  3.2,                                    ! Wind Speed {m/s}
  10,                                     ! Wind Direction {deg}
  0,                                      ! Sky Clearness
  0,                                      ! Rain Indicator
  0,                                      ! Snow Indicator
  21,                                     ! Day of Month
  1,                                      ! Month
  WinterDesignDay,                        ! Day Type
  0,                                      ! Daylight Saving Time Indicator
  Wetbulb,                                ! Humidity Indicating Type
  ,                                       ! Humidity Indicating Day Schedule Name
  DefaultMultipliers,                     ! Dry-Bulb Temperature Range Modifier Type
  ,                                       ! Dry-Bulb Temperature Range Modifier Schedule Name
  ASHRAEClearSky;                         ! Solar Model Indicator

OS:ComponentData,
  {8795cef7-a032-461b-b33e-dd87662738c5}, ! Handle
  Component Data 1,                       ! Name
  {74b16eec-56bb-4229-8bc1-901549aac533}, ! UUID
  {4964b97d-49e8-4cd9-acd2-f69fe1e5168d}, ! Version UUID
  1366310581,                             ! Creation Timestamp
  1366310581,                             ! Version Timestamp
  {04b5f737-1324-4fe7-a8ea-db8a7273dbc4}; ! Name of Object 1

