
OS:Version,
  {7e52855f-e84d-4def-be4a-f6da8073146f}, ! Handle
  0.9.3;                                  ! Version Identifier

OS:SizingPeriod:DesignDay,
  {403b0fd6-93b3-4c29-b1a5-b966d3d34eee}, ! Handle
  Hoquiam Ap Ann Htg 99% Condns DB,       ! Name
  -0.6,                                   ! Maximum Dry-Bulb Temperature {C}
  0,                                      ! Daily Dry-Bulb Temperature Range {deltaC}
  -0.6,                                   ! Humidity Indicating Conditions at Maximum Dry-Bulb {BasedOnField A3}
  101277,                                 ! Barometric Pressure {Pa}
  4,                                      ! Wind Speed {m/s}
  70,                                     ! Wind Direction {deg}
  0,                                      ! Sky Clearness
  0,                                      ! Rain Indicator
  0,                                      ! Snow Indicator
  21,                                     ! Day of Month
  12,                                     ! Month
  WinterDesignDay,                        ! Day Type
  0,                                      ! Daylight Saving Time Indicator
  Wetbulb,                                ! Humidity Indicating Type
  ,                                       ! Humidity Indicating Day Schedule Name
  DefaultMultipliers,                     ! Dry-Bulb Temperature Range Modifier Type
  ,                                       ! Dry-Bulb Temperature Range Modifier Schedule Name
  ASHRAEClearSky;                         ! Solar Model Indicator

OS:ComponentData,
  {da58d92e-4ca4-4ac7-aed3-cf8ad41137a9}, ! Handle
  Component Data 1,                       ! Name
  {a4c1fd6a-f436-447a-bd07-7c4012ba55b8}, ! UUID
  {97c1064b-0f92-408a-8994-55e09f2c8b59}, ! Version UUID
  1366311290,                             ! Creation Timestamp
  1366311290,                             ! Version Timestamp
  {403b0fd6-93b3-4c29-b1a5-b966d3d34eee}; ! Name of Object 1

