
OS:Version,
  {e47ee329-bc83-4107-ac36-b8df9be5a819}, ! Handle
  0.9.3;                                  ! Version Identifier

OS:SizingPeriod:DesignDay,
  {4453f7d1-4fb8-4c28-87e5-8257f084639f}, ! Handle
  Lafayette Regional Ap Ann Clg .4% Condns Enth=>MDB, ! Name
  31.7,                                   ! Maximum Dry-Bulb Temperature {C}
  8.9,                                    ! Daily Dry-Bulb Temperature Range {deltaC}
  84900,                                  ! Humidity Indicating Conditions at Maximum Dry-Bulb {BasedOnField A3}
  101181,                                 ! Barometric Pressure {Pa}
  3.5,                                    ! Wind Speed {m/s}
  110,                                    ! Wind Direction {deg}
  0,                                      ! Sky Clearness
  0,                                      ! Rain Indicator
  0,                                      ! Snow Indicator
  21,                                     ! Day of Month
  7,                                      ! Month
  SummerDesignDay,                        ! Day Type
  0,                                      ! Daylight Saving Time Indicator
  Enthalpy,                               ! Humidity Indicating Type
  ,                                       ! Humidity Indicating Day Schedule Name
  DefaultMultipliers,                     ! Dry-Bulb Temperature Range Modifier Type
  ,                                       ! Dry-Bulb Temperature Range Modifier Schedule Name
  ASHRAETau,                              ! Solar Model Indicator
  ,                                       ! Beam Solar Day Schedule Name
  ,                                       ! Diffuse Solar Day Schedule Name
  0.532,                                  ! ASHRAE Taub {dimensionless}
  1.875;                                  ! ASHRAE Taud {dimensionless}

OS:ComponentData,
  {bdc6a023-41f9-459d-af2b-a360b2676f8d}, ! Handle
  Component Data 1,                       ! Name
  {644e7fc1-30f1-49a8-b81b-de0b6abf3bb0}, ! UUID
  {e5ea88ac-3fab-4064-819f-565947147370}, ! Version UUID
  1366307721,                             ! Creation Timestamp
  1366307721,                             ! Version Timestamp
  {4453f7d1-4fb8-4c28-87e5-8257f084639f}; ! Name of Object 1

