
OS:Version,
  {ef63c090-b9e8-489e-9928-cf4ab690f1d3}, ! Handle
  0.9.3;                                  ! Version Identifier

OS:SizingPeriod:DesignDay,
  {68664485-68e5-45fd-bf5b-92ab20bc2c4b}, ! Handle
  Fort Wayne Intl Ap Ann Clg .4% Condns DP=>MDB, ! Name
  28.2,                                   ! Maximum Dry-Bulb Temperature {C}
  11.1,                                   ! Daily Dry-Bulb Temperature Range {deltaC}
  23.8,                                   ! Humidity Indicating Conditions at Maximum Dry-Bulb {BasedOnField A3}
  98463,                                  ! Barometric Pressure {Pa}
  5,                                      ! Wind Speed {m/s}
  240,                                    ! Wind Direction {deg}
  0,                                      ! Sky Clearness
  0,                                      ! Rain Indicator
  0,                                      ! Snow Indicator
  21,                                     ! Day of Month
  7,                                      ! Month
  SummerDesignDay,                        ! Day Type
  0,                                      ! Daylight Saving Time Indicator
  Dewpoint,                               ! Humidity Indicating Type
  ,                                       ! Humidity Indicating Day Schedule Name
  DefaultMultipliers,                     ! Dry-Bulb Temperature Range Modifier Type
  ,                                       ! Dry-Bulb Temperature Range Modifier Schedule Name
  ASHRAETau,                              ! Solar Model Indicator
  ,                                       ! Beam Solar Day Schedule Name
  ,                                       ! Diffuse Solar Day Schedule Name
  0.451,                                  ! ASHRAE Taub {dimensionless}
  2.059;                                  ! ASHRAE Taud {dimensionless}

OS:ComponentData,
  {0158f8f9-4537-4434-9bc2-34dc99f3a4bc}, ! Handle
  Component Data 1,                       ! Name
  {dd978822-982b-4cb3-af04-ecd0c6c03020}, ! UUID
  {b9ee0149-3b7c-463e-90b8-34c874e40682}, ! Version UUID
  1366307447,                             ! Creation Timestamp
  1366307447,                             ! Version Timestamp
  {68664485-68e5-45fd-bf5b-92ab20bc2c4b}; ! Name of Object 1

