
OS:Version,
  {dfc7c9c9-abf8-465d-9f34-3009fcd4d374}, ! Handle
  0.9.3;                                  ! Version Identifier

OS:SizingPeriod:DesignDay,
  {48e1e185-3ad1-434e-9170-0bf161249284}, ! Handle
  Asheville Regional Arpt Ann Clg 1% Condns WB=>MDB, ! Name
  27.6,                                   ! Maximum Dry-Bulb Temperature {C}
  10.7,                                   ! Daily Dry-Bulb Temperature Range {deltaC}
  22.8,                                   ! Humidity Indicating Conditions at Maximum Dry-Bulb {BasedOnField A3}
  93734,                                  ! Barometric Pressure {Pa}
  3.8,                                    ! Wind Speed {m/s}
  340,                                    ! Wind Direction {deg}
  0,                                      ! Sky Clearness
  0,                                      ! Rain Indicator
  0,                                      ! Snow Indicator
  21,                                     ! Day of Month
  7,                                      ! Month
  SummerDesignDay,                        ! Day Type
  0,                                      ! Daylight Saving Time Indicator
  Wetbulb,                                ! Humidity Indicating Type
  ,                                       ! Humidity Indicating Day Schedule Name
  DefaultMultipliers,                     ! Dry-Bulb Temperature Range Modifier Type
  ,                                       ! Dry-Bulb Temperature Range Modifier Schedule Name
  ASHRAETau,                              ! Solar Model Indicator
  ,                                       ! Beam Solar Day Schedule Name
  ,                                       ! Diffuse Solar Day Schedule Name
  0.517,                                  ! ASHRAE Taub {dimensionless}
  1.849;                                  ! ASHRAE Taud {dimensionless}

OS:ComponentData,
  {2568af1b-0502-4012-9060-d3a6c68c50a0}, ! Handle
  Component Data 1,                       ! Name
  {32f14246-5076-46e0-8853-f49826948a92}, ! UUID
  {c04bb24f-74d2-4b28-aa70-6377acda869c}, ! Version UUID
  1366308869,                             ! Creation Timestamp
  1366308869,                             ! Version Timestamp
  {48e1e185-3ad1-434e-9170-0bf161249284}; ! Name of Object 1

