
OS:Version,
  {b2befae4-44aa-45b6-a1dd-f78da84c6985}, ! Handle
  0.9.3;                                  ! Version Identifier

OS:SizingPeriod:DesignDay,
  {d311e25a-7e03-42b0-a83b-77247d66a11b}, ! Handle
  Chicago Midway Ap Ann Htg Wind 99% Condns WS=>MCDB, ! Name
  -2,                                     ! Maximum Dry-Bulb Temperature {C}
  0,                                      ! Daily Dry-Bulb Temperature Range {deltaC}
  -2,                                     ! Humidity Indicating Conditions at Maximum Dry-Bulb {BasedOnField A3}
  99110,                                  ! Barometric Pressure {Pa}
  11.1,                                   ! Wind Speed {m/s}
  300,                                    ! Wind Direction {deg}
  0,                                      ! Sky Clearness
  0,                                      ! Rain Indicator
  0,                                      ! Snow Indicator
  21,                                     ! Day of Month
  1,                                      ! Month
  WinterDesignDay,                        ! Day Type
  0,                                      ! Daylight Saving Time Indicator
  Wetbulb,                                ! Humidity Indicating Type
  ,                                       ! Humidity Indicating Day Schedule Name
  DefaultMultipliers,                     ! Dry-Bulb Temperature Range Modifier Type
  ,                                       ! Dry-Bulb Temperature Range Modifier Schedule Name
  ASHRAEClearSky;                         ! Solar Model Indicator

OS:ComponentData,
  {87b5e1ea-c1ac-45a8-bf2a-cd6ee7b52e7e}, ! Handle
  Component Data 1,                       ! Name
  {8a0436a1-e3cd-4755-9b0c-ea75801da69b}, ! UUID
  {828f1e60-db9c-489c-8e77-3dd05608554c}, ! Version UUID
  1366307342,                             ! Creation Timestamp
  1366307342,                             ! Version Timestamp
  {d311e25a-7e03-42b0-a83b-77247d66a11b}; ! Name of Object 1

