
OS:Version,
  {bfe8ce59-e555-4209-862c-aadaa34431c8}, ! Handle
  0.9.3;                                  ! Version Identifier

OS:SizingPeriod:DesignDay,
  {a2245b3a-5ca3-4adc-b3f9-4b40282efd6f}, ! Handle
  Jonesboro Muni Ann Clg 2% Condns DP=>MDB, ! Name
  28.6,                                   ! Maximum Dry-Bulb Temperature {C}
  10.3,                                   ! Daily Dry-Bulb Temperature Range {deltaC}
  23.8,                                   ! Humidity Indicating Conditions at Maximum Dry-Bulb {BasedOnField A3}
  100344,                                 ! Barometric Pressure {Pa}
  4.1,                                    ! Wind Speed {m/s}
  200,                                    ! Wind Direction {deg}
  0,                                      ! Sky Clearness
  0,                                      ! Rain Indicator
  0,                                      ! Snow Indicator
  21,                                     ! Day of Month
  7,                                      ! Month
  SummerDesignDay,                        ! Day Type
  0,                                      ! Daylight Saving Time Indicator
  Dewpoint,                               ! Humidity Indicating Type
  ,                                       ! Humidity Indicating Day Schedule Name
  DefaultMultipliers,                     ! Dry-Bulb Temperature Range Modifier Type
  ,                                       ! Dry-Bulb Temperature Range Modifier Schedule Name
  ASHRAETau,                              ! Solar Model Indicator
  ,                                       ! Beam Solar Day Schedule Name
  ,                                       ! Diffuse Solar Day Schedule Name
  0.504,                                  ! ASHRAE Taub {dimensionless}
  1.912;                                  ! ASHRAE Taud {dimensionless}

OS:ComponentData,
  {dd1284b8-ecdb-42ef-b78e-8766978eabd1}, ! Handle
  Component Data 1,                       ! Name
  {b3950526-86ca-4826-90e2-c1ed0c7ce42e}, ! UUID
  {89764f27-8b89-429d-a528-8fb97971016f}, ! Version UUID
  1366306221,                             ! Creation Timestamp
  1366306221,                             ! Version Timestamp
  {a2245b3a-5ca3-4adc-b3f9-4b40282efd6f}; ! Name of Object 1

