
OS:Version,
  {907adc04-3292-4d4c-8052-4aba59a72f48}, ! Handle
  0.9.3;                                  ! Version Identifier

OS:SizingPeriod:DesignDay,
  {9c62f647-5982-4e66-b5fa-fab432cbcc17}, ! Handle
  Bozeman Gallatin Field Ann Clg 2% Condns DP=>MDB, ! Name
  19.3,                                   ! Maximum Dry-Bulb Temperature {C}
  18.3,                                   ! Daily Dry-Bulb Temperature Range {deltaC}
  12.4,                                   ! Humidity Indicating Conditions at Maximum Dry-Bulb {BasedOnField A3}
  86135,                                  ! Barometric Pressure {Pa}
  3.8,                                    ! Wind Speed {m/s}
  0,                                      ! Wind Direction {deg}
  0,                                      ! Sky Clearness
  0,                                      ! Rain Indicator
  0,                                      ! Snow Indicator
  21,                                     ! Day of Month
  7,                                      ! Month
  SummerDesignDay,                        ! Day Type
  0,                                      ! Daylight Saving Time Indicator
  Dewpoint,                               ! Humidity Indicating Type
  ,                                       ! Humidity Indicating Day Schedule Name
  DefaultMultipliers,                     ! Dry-Bulb Temperature Range Modifier Type
  ,                                       ! Dry-Bulb Temperature Range Modifier Schedule Name
  ASHRAETau,                              ! Solar Model Indicator
  ,                                       ! Beam Solar Day Schedule Name
  ,                                       ! Diffuse Solar Day Schedule Name
  0.384,                                  ! ASHRAE Taub {dimensionless}
  2.199;                                  ! ASHRAE Taud {dimensionless}

OS:ComponentData,
  {9ccbf5b5-afc5-4a33-94ff-9dfe375f14ac}, ! Handle
  Component Data 1,                       ! Name
  {a06518d7-d16f-41b4-9436-c0ec93e9f4eb}, ! UUID
  {8b856dee-2df0-4462-a6e2-741007f8f1f7}, ! Version UUID
  1366308720,                             ! Creation Timestamp
  1366308720,                             ! Version Timestamp
  {9c62f647-5982-4e66-b5fa-fab432cbcc17}; ! Name of Object 1

