
OS:Version,
  {ae099a94-aedf-4e26-a52e-f89f4f3d7cbf}, ! Handle
  0.9.3;                                  ! Version Identifier

OS:SizingPeriod:DesignDay,
  {07de9fe2-c382-4110-995c-da0f1984b527}, ! Handle
  KING_SALMON Ann Clg 1% Condns DB=>MWB,  ! Name
  20.2,                                   ! Maximum Dry-Bulb Temperature {C}
  8.6,                                    ! Daily Dry-Bulb Temperature Range {deltaC}
  14,                                     ! Humidity Indicating Conditions at Maximum Dry-Bulb {BasedOnField A3}
  101145,                                 ! Barometric Pressure {Pa}
  4.8,                                    ! Wind Speed {m/s}
  270,                                    ! Wind Direction {deg}
  0,                                      ! Sky Clearness
  0,                                      ! Rain Indicator
  0,                                      ! Snow Indicator
  21,                                     ! Day of Month
  7,                                      ! Month
  SummerDesignDay,                        ! Day Type
  0,                                      ! Daylight Saving Time Indicator
  Wetbulb,                                ! Humidity Indicating Type
  ,                                       ! Humidity Indicating Day Schedule Name
  DefaultMultipliers,                     ! Dry-Bulb Temperature Range Modifier Type
  ,                                       ! Dry-Bulb Temperature Range Modifier Schedule Name
  ASHRAETau,                              ! Solar Model Indicator
  ,                                       ! Beam Solar Day Schedule Name
  ,                                       ! Diffuse Solar Day Schedule Name
  0.384,                                  ! ASHRAE Taub {dimensionless}
  2.227;                                  ! ASHRAE Taud {dimensionless}

