
OS:Version,
  {0615e988-4ec2-4d50-b1b4-23e66e2a313e}, ! Handle
  0.9.3;                                  ! Version Identifier

OS:SizingPeriod:DesignDay,
  {d4480d31-3429-4d4c-8394-cbe33774ac72}, ! Handle
  Lebanon Municipal Ann Clg 2% Condns WB=>MDB, ! Name
  26,                                     ! Maximum Dry-Bulb Temperature {C}
  12.9,                                   ! Daily Dry-Bulb Temperature Range {deltaC}
  21.4,                                   ! Humidity Indicating Conditions at Maximum Dry-Bulb {BasedOnField A3}
  99158,                                  ! Barometric Pressure {Pa}
  4,                                      ! Wind Speed {m/s}
  220,                                    ! Wind Direction {deg}
  0,                                      ! Sky Clearness
  0,                                      ! Rain Indicator
  0,                                      ! Snow Indicator
  21,                                     ! Day of Month
  7,                                      ! Month
  SummerDesignDay,                        ! Day Type
  0,                                      ! Daylight Saving Time Indicator
  Wetbulb,                                ! Humidity Indicating Type
  ,                                       ! Humidity Indicating Day Schedule Name
  DefaultMultipliers,                     ! Dry-Bulb Temperature Range Modifier Type
  ,                                       ! Dry-Bulb Temperature Range Modifier Schedule Name
  ASHRAETau,                              ! Solar Model Indicator
  ,                                       ! Beam Solar Day Schedule Name
  ,                                       ! Diffuse Solar Day Schedule Name
  0.443,                                  ! ASHRAE Taub {dimensionless}
  2.066;                                  ! ASHRAE Taud {dimensionless}

OS:ComponentData,
  {015efb1a-06fb-4ac3-99f0-52b23cc96ee5}, ! Handle
  Component Data 1,                       ! Name
  {c6abe94f-0447-4f78-82a0-bb34a2b66398}, ! UUID
  {649ce123-b9ac-450f-b86b-8324116abfc3}, ! Version UUID
  1366309258,                             ! Creation Timestamp
  1366309258,                             ! Version Timestamp
  {d4480d31-3429-4d4c-8394-cbe33774ac72}; ! Name of Object 1

