
OS:Version,
  {6fad20b5-25b3-44c5-8046-8236171dc480}, ! Handle
  0.9.3;                                  ! Version Identifier

OS:SizingPeriod:DesignDay,
  {6c7d5daf-4c44-4002-9140-9e1d6ead7d41}, ! Handle
  Duluth International Arpt Ann Htg Wind 99% Condns WS=>MCDB, ! Name
  -10,                                    ! Maximum Dry-Bulb Temperature {C}
  0,                                      ! Daily Dry-Bulb Temperature Range {deltaC}
  -10,                                    ! Humidity Indicating Conditions at Maximum Dry-Bulb {BasedOnField A3}
  96230,                                  ! Barometric Pressure {Pa}
  11,                                     ! Wind Speed {m/s}
  310,                                    ! Wind Direction {deg}
  0,                                      ! Sky Clearness
  0,                                      ! Rain Indicator
  0,                                      ! Snow Indicator
  21,                                     ! Day of Month
  1,                                      ! Month
  WinterDesignDay,                        ! Day Type
  0,                                      ! Daylight Saving Time Indicator
  Wetbulb,                                ! Humidity Indicating Type
  ,                                       ! Humidity Indicating Day Schedule Name
  DefaultMultipliers,                     ! Dry-Bulb Temperature Range Modifier Type
  ,                                       ! Dry-Bulb Temperature Range Modifier Schedule Name
  ASHRAEClearSky;                         ! Solar Model Indicator

OS:ComponentData,
  {39994de3-ce58-45f2-89aa-70f7c77e6db7}, ! Handle
  Component Data 1,                       ! Name
  {506b3baf-2570-434d-8c1b-58d71c9aa39c}, ! UUID
  {980ae075-622f-459d-8c95-c3e85c02f676}, ! Version UUID
  1366308206,                             ! Creation Timestamp
  1366308206,                             ! Version Timestamp
  {6c7d5daf-4c44-4002-9140-9e1d6ead7d41}; ! Name of Object 1

