
OS:Version,
  {aab96a4a-d801-4d86-bab0-06f0d933974a}, ! Handle
  0.9.3;                                  ! Version Identifier

OS:SizingPeriod:DesignDay,
  {fc43facb-3cdb-4ca8-8c06-def465bd44d9}, ! Handle
  Fresno Ann Clg .4% Condns DB=>MWB,      ! Name
  39.8,                                   ! Maximum Dry-Bulb Temperature {C}
  16.4,                                   ! Daily Dry-Bulb Temperature Range {deltaC}
  21.8,                                   ! Humidity Indicating Conditions at Maximum Dry-Bulb {BasedOnField A3}
  100129,                                 ! Barometric Pressure {Pa}
  3.7,                                    ! Wind Speed {m/s}
  300,                                    ! Wind Direction {deg}
  0,                                      ! Sky Clearness
  0,                                      ! Rain Indicator
  0,                                      ! Snow Indicator
  21,                                     ! Day of Month
  7,                                      ! Month
  SummerDesignDay,                        ! Day Type
  0,                                      ! Daylight Saving Time Indicator
  Wetbulb,                                ! Humidity Indicating Type
  ,                                       ! Humidity Indicating Day Schedule Name
  DefaultMultipliers,                     ! Dry-Bulb Temperature Range Modifier Type
  ,                                       ! Dry-Bulb Temperature Range Modifier Schedule Name
  ASHRAETau,                              ! Solar Model Indicator
  ,                                       ! Beam Solar Day Schedule Name
  ,                                       ! Diffuse Solar Day Schedule Name
  0.428,                                  ! ASHRAE Taub {dimensionless}
  2.152;                                  ! ASHRAE Taud {dimensionless}

OS:ComponentData,
  {c82c170a-489d-4f60-860d-66b7b7c57261}, ! Handle
  Component Data 1,                       ! Name
  {7ee63989-93d4-4dfd-9d37-c20214a3d578}, ! UUID
  {1342844e-29ae-4c28-9f55-e2b7878b6d99}, ! Version UUID
  1366306436,                             ! Creation Timestamp
  1366306436,                             ! Version Timestamp
  {fc43facb-3cdb-4ca8-8c06-def465bd44d9}; ! Name of Object 1

