
OS:Version,
  {25965e0c-72e9-4614-9597-3c9e5205ade9}, ! Handle
  0.9.3;                                  ! Version Identifier

OS:SizingPeriod:DesignDay,
  {bb51337e-c7ab-4954-b91b-98b24bb5b63c}, ! Handle
  FAIRBANKS Ann Clg 2% Condns DB=>MWB,    ! Name
  23.7,                                   ! Maximum Dry-Bulb Temperature {C}
  10.2,                                   ! Daily Dry-Bulb Temperature Range {deltaC}
  14.7,                                   ! Humidity Indicating Conditions at Maximum Dry-Bulb {BasedOnField A3}
  99678,                                  ! Barometric Pressure {Pa}
  3.1,                                    ! Wind Speed {m/s}
  180,                                    ! Wind Direction {deg}
  0,                                      ! Sky Clearness
  0,                                      ! Rain Indicator
  0,                                      ! Snow Indicator
  21,                                     ! Day of Month
  7,                                      ! Month
  SummerDesignDay,                        ! Day Type
  0,                                      ! Daylight Saving Time Indicator
  Wetbulb,                                ! Humidity Indicating Type
  ,                                       ! Humidity Indicating Day Schedule Name
  DefaultMultipliers,                     ! Dry-Bulb Temperature Range Modifier Type
  ,                                       ! Dry-Bulb Temperature Range Modifier Schedule Name
  ASHRAETau,                              ! Solar Model Indicator
  ,                                       ! Beam Solar Day Schedule Name
  ,                                       ! Diffuse Solar Day Schedule Name
  0.387,                                  ! ASHRAE Taub {dimensionless}
  2.212;                                  ! ASHRAE Taud {dimensionless}

OS:ComponentData,
  {d473cf90-b621-4bb5-ac80-9db0fafb3cab}, ! Handle
  Component Data 1,                       ! Name
  {55f82474-9774-4271-b70b-46d424ef035a}, ! UUID
  {7a6115de-49b8-4ff6-9f42-0baafcfad145}, ! Version UUID
  1366305250,                             ! Creation Timestamp
  1366305250,                             ! Version Timestamp
  {bb51337e-c7ab-4954-b91b-98b24bb5b63c}; ! Name of Object 1

