
OS:Version,
  {d5559ab8-d1eb-4d0a-a565-a6af1e1e90e8}, ! Handle
  0.9.3;                                  ! Version Identifier

OS:SizingPeriod:DesignDay,
  {2bfb68d6-754e-48e2-8be0-d8febf839330}, ! Handle
  DAGGETT Ann Clg 1% Condns Enth=>MDB,    ! Name
  37,                                     ! Maximum Dry-Bulb Temperature {C}
  16.6,                                   ! Daily Dry-Bulb Temperature Range {deltaC}
  66800,                                  ! Humidity Indicating Conditions at Maximum Dry-Bulb {BasedOnField A3}
  94458,                                  ! Barometric Pressure {Pa}
  4.8,                                    ! Wind Speed {m/s}
  290,                                    ! Wind Direction {deg}
  0,                                      ! Sky Clearness
  0,                                      ! Rain Indicator
  0,                                      ! Snow Indicator
  21,                                     ! Day of Month
  7,                                      ! Month
  SummerDesignDay,                        ! Day Type
  0,                                      ! Daylight Saving Time Indicator
  Enthalpy,                               ! Humidity Indicating Type
  ,                                       ! Humidity Indicating Day Schedule Name
  DefaultMultipliers,                     ! Dry-Bulb Temperature Range Modifier Type
  ,                                       ! Dry-Bulb Temperature Range Modifier Schedule Name
  ASHRAETau,                              ! Solar Model Indicator
  ,                                       ! Beam Solar Day Schedule Name
  ,                                       ! Diffuse Solar Day Schedule Name
  0.497,                                  ! ASHRAE Taub {dimensionless}
  1.821;                                  ! ASHRAE Taud {dimensionless}

OS:ComponentData,
  {42365719-3e9d-405b-941c-9e6db4818cc1}, ! Handle
  Component Data 1,                       ! Name
  {811fb899-320b-4eb0-b646-602075127ca8}, ! UUID
  {30543b50-4943-4a7c-97f5-856b5ccd54b6}, ! Version UUID
  1366306372,                             ! Creation Timestamp
  1366306372,                             ! Version Timestamp
  {2bfb68d6-754e-48e2-8be0-d8febf839330}; ! Name of Object 1

