
OS:Version,
  {942a697a-3c17-4a15-b6b2-e8e078c35189}, ! Handle
  0.9.3;                                  ! Version Identifier

OS:SizingPeriod:DesignDay,
  {bfb88c93-70aa-4551-b6e4-b3e4d050351b}, ! Handle
  Flint Bishop Intl Arpt Ann Hum_n 99.6% Condns DP=>MCDB, ! Name
  -17.3,                                  ! Maximum Dry-Bulb Temperature {C}
  0,                                      ! Daily Dry-Bulb Temperature Range {deltaC}
  -22.2,                                  ! Humidity Indicating Conditions at Maximum Dry-Bulb {BasedOnField A3}
  98545,                                  ! Barometric Pressure {Pa}
  3.8,                                    ! Wind Speed {m/s}
  220,                                    ! Wind Direction {deg}
  0,                                      ! Sky Clearness
  0,                                      ! Rain Indicator
  0,                                      ! Snow Indicator
  21,                                     ! Day of Month
  1,                                      ! Month
  WinterDesignDay,                        ! Day Type
  0,                                      ! Daylight Saving Time Indicator
  Dewpoint,                               ! Humidity Indicating Type
  ,                                       ! Humidity Indicating Day Schedule Name
  DefaultMultipliers,                     ! Dry-Bulb Temperature Range Modifier Type
  ,                                       ! Dry-Bulb Temperature Range Modifier Schedule Name
  ASHRAEClearSky;                         ! Solar Model Indicator

OS:ComponentData,
  {9320e45f-0c0d-4eb5-8a34-2e6f9fbe4936}, ! Handle
  Component Data 1,                       ! Name
  {1b885fa6-e55b-4450-99a3-455f4cfa3bb6}, ! UUID
  {37e6def4-7ee3-4239-8ec6-cf54a2387034}, ! Version UUID
  1366307999,                             ! Creation Timestamp
  1366307999,                             ! Version Timestamp
  {bfb88c93-70aa-4551-b6e4-b3e4d050351b}; ! Name of Object 1

