
OS:Version,
  {7a09d88b-771f-481d-bfbb-aab559f1ed19}, ! Handle
  0.9.3;                                  ! Version Identifier

OS:SizingPeriod:DesignDay,
  {5fd8161e-e35e-4576-b426-81af365ada90}, ! Handle
  GLASGOW Ann Clg 2% Condns DP=>MDB,      ! Name
  21.4,                                   ! Maximum Dry-Bulb Temperature {C}
  14.5,                                   ! Daily Dry-Bulb Temperature Range {deltaC}
  14.8,                                   ! Humidity Indicating Conditions at Maximum Dry-Bulb {BasedOnField A3}
  93194,                                  ! Barometric Pressure {Pa}
  5.4,                                    ! Wind Speed {m/s}
  150,                                    ! Wind Direction {deg}
  0,                                      ! Sky Clearness
  0,                                      ! Rain Indicator
  0,                                      ! Snow Indicator
  21,                                     ! Day of Month
  7,                                      ! Month
  SummerDesignDay,                        ! Day Type
  0,                                      ! Daylight Saving Time Indicator
  Dewpoint,                               ! Humidity Indicating Type
  ,                                       ! Humidity Indicating Day Schedule Name
  DefaultMultipliers,                     ! Dry-Bulb Temperature Range Modifier Type
  ,                                       ! Dry-Bulb Temperature Range Modifier Schedule Name
  ASHRAETau,                              ! Solar Model Indicator
  ,                                       ! Beam Solar Day Schedule Name
  ,                                       ! Diffuse Solar Day Schedule Name
  0.424,                                  ! ASHRAE Taub {dimensionless}
  2.044;                                  ! ASHRAE Taud {dimensionless}

OS:ComponentData,
  {ac193b20-9f94-436e-a1b0-0e92754b6bc1}, ! Handle
  Component Data 1,                       ! Name
  {b8de709e-1c13-4fd3-826a-b2c3312bc525}, ! UUID
  {bc14ed34-8369-4c22-93ec-997626124e06}, ! Version UUID
  1366308755,                             ! Creation Timestamp
  1366308755,                             ! Version Timestamp
  {5fd8161e-e35e-4576-b426-81af365ada90}; ! Name of Object 1

