
OS:Version,
  {a26e616a-ac9d-48d2-a491-6199e6b37417}, ! Handle
  0.9.3;                                  ! Version Identifier

OS:SizingPeriod:DesignDay,
  {92f528c7-a128-42ad-8abc-bfb8dd11775d}, ! Handle
  BARROW Ann Clg 1% Condns WB=>MDB,       ! Name
  11.8,                                   ! Maximum Dry-Bulb Temperature {C}
  6.3,                                    ! Daily Dry-Bulb Temperature Range {deltaC}
  10,                                     ! Humidity Indicating Conditions at Maximum Dry-Bulb {BasedOnField A3}
  101277,                                 ! Barometric Pressure {Pa}
  5.2,                                    ! Wind Speed {m/s}
  180,                                    ! Wind Direction {deg}
  0,                                      ! Sky Clearness
  0,                                      ! Rain Indicator
  0,                                      ! Snow Indicator
  21,                                     ! Day of Month
  7,                                      ! Month
  SummerDesignDay,                        ! Day Type
  0,                                      ! Daylight Saving Time Indicator
  Wetbulb,                                ! Humidity Indicating Type
  ,                                       ! Humidity Indicating Day Schedule Name
  DefaultMultipliers,                     ! Dry-Bulb Temperature Range Modifier Type
  ,                                       ! Dry-Bulb Temperature Range Modifier Schedule Name
  ASHRAETau,                              ! Solar Model Indicator
  ,                                       ! Beam Solar Day Schedule Name
  ,                                       ! Diffuse Solar Day Schedule Name
  0.344,                                  ! ASHRAE Taub {dimensionless}
  2.25;                                   ! ASHRAE Taud {dimensionless}

OS:ComponentData,
  {6d242259-e38b-4fa1-af40-a56256ab358d}, ! Handle
  Component Data 1,                       ! Name
  {cac05b0a-c60b-4f83-955b-29d3c94dd099}, ! UUID
  {e3260a4d-13e7-4627-8df7-02df92da3e62}, ! Version UUID
  1366304741,                             ! Creation Timestamp
  1366304741,                             ! Version Timestamp
  {92f528c7-a128-42ad-8abc-bfb8dd11775d}; ! Name of Object 1

