
OS:Version,
  {7997c492-854a-406c-b2f1-b64c5b97f067}, ! Handle
  0.9.3;                                  ! Version Identifier

OS:SizingPeriod:DesignDay,
  {806d3a14-4a35-450d-bc9d-d2ceb0c2cd5a}, ! Handle
  LYNCHBURG Ann Clg .4% Condns DB=>MWB,   ! Name
  33.4,                                   ! Maximum Dry-Bulb Temperature {C}
  10.7,                                   ! Daily Dry-Bulb Temperature Range {deltaC}
  23.3,                                   ! Humidity Indicating Conditions at Maximum Dry-Bulb {BasedOnField A3}
  98018,                                  ! Barometric Pressure {Pa}
  3.3,                                    ! Wind Speed {m/s}
  240,                                    ! Wind Direction {deg}
  0,                                      ! Sky Clearness
  0,                                      ! Rain Indicator
  0,                                      ! Snow Indicator
  21,                                     ! Day of Month
  7,                                      ! Month
  SummerDesignDay,                        ! Day Type
  0,                                      ! Daylight Saving Time Indicator
  Wetbulb,                                ! Humidity Indicating Type
  ,                                       ! Humidity Indicating Day Schedule Name
  DefaultMultipliers,                     ! Dry-Bulb Temperature Range Modifier Type
  ,                                       ! Dry-Bulb Temperature Range Modifier Schedule Name
  ASHRAETau,                              ! Solar Model Indicator
  ,                                       ! Beam Solar Day Schedule Name
  ,                                       ! Diffuse Solar Day Schedule Name
  0.531,                                  ! ASHRAE Taub {dimensionless}
  1.818;                                  ! ASHRAE Taud {dimensionless}

OS:ComponentData,
  {9713cd5d-804e-470d-8558-c9441ea067f2}, ! Handle
  Component Data 1,                       ! Name
  {20e02730-114a-48c4-8e1b-786626391c19}, ! UUID
  {84faca10-5e73-4dd1-a252-c2d869e076d0}, ! Version UUID
  1366311083,                             ! Creation Timestamp
  1366311083,                             ! Version Timestamp
  {806d3a14-4a35-450d-bc9d-d2ceb0c2cd5a}; ! Name of Object 1

