
OS:Version,
  {3c3ea91f-6254-4b15-a63f-b6f9a0110f4a}, ! Handle
  0.9.3;                                  ! Version Identifier

OS:SizingPeriod:DesignDay,
  {7bafc755-8320-44c3-82a8-8a4158596bff}, ! Handle
  Helena Ann Clg .4% Condns DP=>MDB,      ! Name
  20.5,                                   ! Maximum Dry-Bulb Temperature {C}
  16.1,                                   ! Daily Dry-Bulb Temperature Range {deltaC}
  14.7,                                   ! Humidity Indicating Conditions at Maximum Dry-Bulb {BasedOnField A3}
  87844,                                  ! Barometric Pressure {Pa}
  4.9,                                    ! Wind Speed {m/s}
  290,                                    ! Wind Direction {deg}
  0,                                      ! Sky Clearness
  0,                                      ! Rain Indicator
  0,                                      ! Snow Indicator
  21,                                     ! Day of Month
  7,                                      ! Month
  SummerDesignDay,                        ! Day Type
  0,                                      ! Daylight Saving Time Indicator
  Dewpoint,                               ! Humidity Indicating Type
  ,                                       ! Humidity Indicating Day Schedule Name
  DefaultMultipliers,                     ! Dry-Bulb Temperature Range Modifier Type
  ,                                       ! Dry-Bulb Temperature Range Modifier Schedule Name
  ASHRAETau,                              ! Solar Model Indicator
  ,                                       ! Beam Solar Day Schedule Name
  ,                                       ! Diffuse Solar Day Schedule Name
  0.38,                                   ! ASHRAE Taub {dimensionless}
  2.232;                                  ! ASHRAE Taud {dimensionless}

OS:ComponentData,
  {9c191095-bfa7-4b24-9c02-6ff85cf780a9}, ! Handle
  Component Data 1,                       ! Name
  {81456e7d-a757-4a0e-be25-e11b435315e6}, ! UUID
  {7cc3749b-e1f0-418b-bf93-79855fd17fcf}, ! Version UUID
  1366308794,                             ! Creation Timestamp
  1366308794,                             ! Version Timestamp
  {7bafc755-8320-44c3-82a8-8a4158596bff}; ! Name of Object 1

