
OS:Version,
  {a9d95d3f-9f14-4938-a8fd-fd41cc13dc16}, ! Handle
  0.9.3;                                  ! Version Identifier

OS:SizingPeriod:DesignDay,
  {80413427-a643-4c89-991f-73a7f8b18e0e}, ! Handle
  Cody Muni  Awos Ann Clg 1% Condns Enth=>MDB, ! Name
  27.1,                                   ! Maximum Dry-Bulb Temperature {C}
  14.2,                                   ! Daily Dry-Bulb Temperature Range {deltaC}
  49400,                                  ! Humidity Indicating Conditions at Maximum Dry-Bulb {BasedOnField A3}
  84007,                                  ! Barometric Pressure {Pa}
  4.3,                                    ! Wind Speed {m/s}
  260,                                    ! Wind Direction {deg}
  0,                                      ! Sky Clearness
  0,                                      ! Rain Indicator
  0,                                      ! Snow Indicator
  21,                                     ! Day of Month
  7,                                      ! Month
  SummerDesignDay,                        ! Day Type
  0,                                      ! Daylight Saving Time Indicator
  Enthalpy,                               ! Humidity Indicating Type
  ,                                       ! Humidity Indicating Day Schedule Name
  DefaultMultipliers,                     ! Dry-Bulb Temperature Range Modifier Type
  ,                                       ! Dry-Bulb Temperature Range Modifier Schedule Name
  ASHRAETau,                              ! Solar Model Indicator
  ,                                       ! Beam Solar Day Schedule Name
  ,                                       ! Diffuse Solar Day Schedule Name
  0.42,                                   ! ASHRAE Taub {dimensionless}
  1.989;                                  ! ASHRAE Taud {dimensionless}

OS:ComponentData,
  {5cf575eb-8ecf-49a8-aeaa-7ed2b1971a4f}, ! Handle
  Component Data 1,                       ! Name
  {1f370398-f481-4a6a-b46e-8fc7f1013c1d}, ! UUID
  {72039e52-7557-4c2b-bdd4-c8fcb4d32eee}, ! Version UUID
  1366311722,                             ! Creation Timestamp
  1366311722,                             ! Version Timestamp
  {80413427-a643-4c89-991f-73a7f8b18e0e}; ! Name of Object 1

