
OS:Version,
  {184bb4a5-27de-4f86-8bbb-461a2f65da7e}, ! Handle
  0.9.3;                                  ! Version Identifier

OS:SizingPeriod:DesignDay,
  {5c14a04c-0a35-45e8-adca-1eb491d174de}, ! Handle
  Atlanta Hartsfield Intl Ap Ann Clg 1% Condns Enth=>MDB, ! Name
  30.4,                                   ! Maximum Dry-Bulb Temperature {C}
  9.5,                                    ! Daily Dry-Bulb Temperature Range {deltaC}
  75600,                                  ! Humidity Indicating Conditions at Maximum Dry-Bulb {BasedOnField A3}
  97679,                                  ! Barometric Pressure {Pa}
  4,                                      ! Wind Speed {m/s}
  300,                                    ! Wind Direction {deg}
  0,                                      ! Sky Clearness
  0,                                      ! Rain Indicator
  0,                                      ! Snow Indicator
  21,                                     ! Day of Month
  7,                                      ! Month
  SummerDesignDay,                        ! Day Type
  0,                                      ! Daylight Saving Time Indicator
  Enthalpy,                               ! Humidity Indicating Type
  ,                                       ! Humidity Indicating Day Schedule Name
  DefaultMultipliers,                     ! Dry-Bulb Temperature Range Modifier Type
  ,                                       ! Dry-Bulb Temperature Range Modifier Schedule Name
  ASHRAETau,                              ! Solar Model Indicator
  ,                                       ! Beam Solar Day Schedule Name
  ,                                       ! Diffuse Solar Day Schedule Name
  0.556,                                  ! ASHRAE Taub {dimensionless}
  1.779;                                  ! ASHRAE Taud {dimensionless}

OS:ComponentData,
  {464f113d-c19f-450f-94e1-1abbb0103b04}, ! Handle
  Component Data 1,                       ! Name
  {b1789755-cfc2-44ea-bb3b-129f24802533}, ! UUID
  {2ba61295-6dd6-4c21-9d17-e478b8e17312}, ! Version UUID
  1366306979,                             ! Creation Timestamp
  1366306979,                             ! Version Timestamp
  {5c14a04c-0a35-45e8-adca-1eb491d174de}; ! Name of Object 1

