
OS:Version,
  {65ea4af1-78ae-4a47-8bb2-3155f70f4512}, ! Handle
  0.9.3;                                  ! Version Identifier

OS:SizingPeriod:DesignDay,
  {5fc7f5f9-cacb-41a4-bb07-5c11129ddd10}, ! Handle
  DULUTH Ann Clg 1% Condns DB=>MWB,       ! Name
  27.3,                                   ! Maximum Dry-Bulb Temperature {C}
  10.9,                                   ! Daily Dry-Bulb Temperature Range {deltaC}
  19.7,                                   ! Humidity Indicating Conditions at Maximum Dry-Bulb {BasedOnField A3}
  96242,                                  ! Barometric Pressure {Pa}
  5.2,                                    ! Wind Speed {m/s}
  220,                                    ! Wind Direction {deg}
  0,                                      ! Sky Clearness
  0,                                      ! Rain Indicator
  0,                                      ! Snow Indicator
  21,                                     ! Day of Month
  7,                                      ! Month
  SummerDesignDay,                        ! Day Type
  0,                                      ! Daylight Saving Time Indicator
  Wetbulb,                                ! Humidity Indicating Type
  ,                                       ! Humidity Indicating Day Schedule Name
  DefaultMultipliers,                     ! Dry-Bulb Temperature Range Modifier Type
  ,                                       ! Dry-Bulb Temperature Range Modifier Schedule Name
  ASHRAETau,                              ! Solar Model Indicator
  ,                                       ! Beam Solar Day Schedule Name
  ,                                       ! Diffuse Solar Day Schedule Name
  0.398,                                  ! ASHRAE Taub {dimensionless}
  2.218;                                  ! ASHRAE Taud {dimensionless}

OS:ComponentData,
  {07f8a4df-9c16-4580-a31e-812658249e77}, ! Handle
  Component Data 1,                       ! Name
  {23891029-cb01-4a71-95fd-f2e4e3fe5cff}, ! UUID
  {953f01a8-66cc-427a-81a8-c39dc3de8a09}, ! Version UUID
  1366308198,                             ! Creation Timestamp
  1366308198,                             ! Version Timestamp
  {5fc7f5f9-cacb-41a4-bb07-5c11129ddd10}; ! Name of Object 1

