
OS:Version,
  {df2c29bf-5278-47be-9494-186148fd4184}, ! Handle
  0.9.3;                                  ! Version Identifier

OS:SizingPeriod:DesignDay,
  {7a055b06-967d-4756-9863-472f6f257da1}, ! Handle
  Laredo AFB Ann Clg 1% Condns DB=>MWB,   ! Name
  38.3,                                   ! Maximum Dry-Bulb Temperature {C}
  11.6,                                   ! Daily Dry-Bulb Temperature Range {deltaC}
  23.3,                                   ! Humidity Indicating Conditions at Maximum Dry-Bulb {BasedOnField A3}
  99512,                                  ! Barometric Pressure {Pa}
  6,                                      ! Wind Speed {m/s}
  130,                                    ! Wind Direction {deg}
  0,                                      ! Sky Clearness
  0,                                      ! Rain Indicator
  0,                                      ! Snow Indicator
  21,                                     ! Day of Month
  8,                                      ! Month
  SummerDesignDay,                        ! Day Type
  0,                                      ! Daylight Saving Time Indicator
  Wetbulb,                                ! Humidity Indicating Type
  ,                                       ! Humidity Indicating Day Schedule Name
  DefaultMultipliers,                     ! Dry-Bulb Temperature Range Modifier Type
  ,                                       ! Dry-Bulb Temperature Range Modifier Schedule Name
  ASHRAETau,                              ! Solar Model Indicator
  ,                                       ! Beam Solar Day Schedule Name
  ,                                       ! Diffuse Solar Day Schedule Name
  0.469,                                  ! ASHRAE Taub {dimensionless}
  2.06;                                   ! ASHRAE Taud {dimensionless}

OS:ComponentData,
  {7cd6bf2b-4c97-404a-9295-ffdd8d3f3214}, ! Handle
  Component Data 1,                       ! Name
  {67e5e87e-787c-4166-9186-2c9740cda40d}, ! UUID
  {4d1569c6-70b5-4427-9bc1-80cf352cec63}, ! Version UUID
  1366310779,                             ! Creation Timestamp
  1366310779,                             ! Version Timestamp
  {7a055b06-967d-4756-9863-472f6f257da1}; ! Name of Object 1

