
OS:Version,
  {bc43aad6-df7d-4852-acff-e8b97930a45a}, ! Handle
  0.9.3;                                  ! Version Identifier

OS:SizingPeriod:DesignDay,
  {0b473760-40ec-4d14-8e81-6cad3d285586}, ! Handle
  Denver Centennial  Golden   N Ann Clg 1% Condns DP=>MDB, ! Name
  19.9,                                   ! Maximum Dry-Bulb Temperature {C}
  15.2,                                   ! Daily Dry-Bulb Temperature Range {deltaC}
  14.9,                                   ! Humidity Indicating Conditions at Maximum Dry-Bulb {BasedOnField A3}
  81198,                                  ! Barometric Pressure {Pa}
  4.9,                                    ! Wind Speed {m/s}
  0,                                      ! Wind Direction {deg}
  0,                                      ! Sky Clearness
  0,                                      ! Rain Indicator
  0,                                      ! Snow Indicator
  21,                                     ! Day of Month
  7,                                      ! Month
  SummerDesignDay,                        ! Day Type
  0,                                      ! Daylight Saving Time Indicator
  Dewpoint,                               ! Humidity Indicating Type
  ,                                       ! Humidity Indicating Day Schedule Name
  DefaultMultipliers,                     ! Dry-Bulb Temperature Range Modifier Type
  ,                                       ! Dry-Bulb Temperature Range Modifier Schedule Name
  ASHRAETau,                              ! Solar Model Indicator
  ,                                       ! Beam Solar Day Schedule Name
  ,                                       ! Diffuse Solar Day Schedule Name
  0.424,                                  ! ASHRAE Taub {dimensionless}
  2.025;                                  ! ASHRAE Taud {dimensionless}

OS:ComponentData,
  {3fabf807-1c59-4986-9602-e88e02c517ac}, ! Handle
  Component Data 1,                       ! Name
  {c056e45c-ef4b-4c47-b467-dfcf13c3e0f4}, ! UUID
  {4c502f3b-6b6c-49ea-87ea-4b81b7bce305}, ! Version UUID
  1366306694,                             ! Creation Timestamp
  1366306694,                             ! Version Timestamp
  {0b473760-40ec-4d14-8e81-6cad3d285586}; ! Name of Object 1

