
OS:Version,
  {b1f2b0ae-3207-4b8e-b6f1-f04265cfaa49}, ! Handle
  0.9.3;                                  ! Version Identifier

OS:SizingPeriod:DesignDay,
  {41bd5776-46e5-4342-9f1c-7745653ed98b}, ! Handle
  GLASGOW Ann Htg 99.6% Condns DB,        ! Name
  -30.4,                                  ! Maximum Dry-Bulb Temperature {C}
  0,                                      ! Daily Dry-Bulb Temperature Range {deltaC}
  -30.4,                                  ! Humidity Indicating Conditions at Maximum Dry-Bulb {BasedOnField A3}
  93194,                                  ! Barometric Pressure {Pa}
  3.3,                                    ! Wind Speed {m/s}
  340,                                    ! Wind Direction {deg}
  0,                                      ! Sky Clearness
  0,                                      ! Rain Indicator
  0,                                      ! Snow Indicator
  21,                                     ! Day of Month
  1,                                      ! Month
  WinterDesignDay,                        ! Day Type
  0,                                      ! Daylight Saving Time Indicator
  Wetbulb,                                ! Humidity Indicating Type
  ,                                       ! Humidity Indicating Day Schedule Name
  DefaultMultipliers,                     ! Dry-Bulb Temperature Range Modifier Type
  ,                                       ! Dry-Bulb Temperature Range Modifier Schedule Name
  ASHRAEClearSky;                         ! Solar Model Indicator

OS:ComponentData,
  {a7e9c3c6-2548-4995-9576-819cf91ae9ac}, ! Handle
  Component Data 1,                       ! Name
  {f3df2e2b-c957-4fd6-8d6f-248caaee22aa}, ! UUID
  {6f25a128-4212-4160-99ec-1e4b8c1c8b38}, ! Version UUID
  1366308753,                             ! Creation Timestamp
  1366308753,                             ! Version Timestamp
  {41bd5776-46e5-4342-9f1c-7745653ed98b}; ! Name of Object 1

