
OS:Version,
  {72fbdc9f-a96d-48e1-b067-5bd25ac8c3d7}, ! Handle
  0.9.3;                                  ! Version Identifier

OS:SizingPeriod:DesignDay,
  {e4f32fdf-270f-4a2f-8c76-5a33e0b15f71}, ! Handle
  Jonesboro Muni Ann Hum_n 99% Condns DP=>MCDB, ! Name
  -6,                                     ! Maximum Dry-Bulb Temperature {C}
  0,                                      ! Daily Dry-Bulb Temperature Range {deltaC}
  -12.7,                                  ! Humidity Indicating Conditions at Maximum Dry-Bulb {BasedOnField A3}
  100344,                                 ! Barometric Pressure {Pa}
  3.7,                                    ! Wind Speed {m/s}
  30,                                     ! Wind Direction {deg}
  0,                                      ! Sky Clearness
  0,                                      ! Rain Indicator
  0,                                      ! Snow Indicator
  21,                                     ! Day of Month
  1,                                      ! Month
  WinterDesignDay,                        ! Day Type
  0,                                      ! Daylight Saving Time Indicator
  Dewpoint,                               ! Humidity Indicating Type
  ,                                       ! Humidity Indicating Day Schedule Name
  DefaultMultipliers,                     ! Dry-Bulb Temperature Range Modifier Type
  ,                                       ! Dry-Bulb Temperature Range Modifier Schedule Name
  ASHRAEClearSky;                         ! Solar Model Indicator

OS:ComponentData,
  {ad1af981-b12d-467c-9be1-461ab2f1cec6}, ! Handle
  Component Data 1,                       ! Name
  {bf82f553-dc1b-40e3-b2fa-3db6fdd0dfc9}, ! UUID
  {17a36951-3a48-4189-86ff-48c31c0745ef}, ! Version UUID
  1366306219,                             ! Creation Timestamp
  1366306219,                             ! Version Timestamp
  {e4f32fdf-270f-4a2f-8c76-5a33e0b15f71}; ! Name of Object 1

