
OS:Version,
  {2d1973a0-c293-4b88-a41c-f39b09ca6eed}, ! Handle
  0.9.3;                                  ! Version Identifier

OS:SizingPeriod:DesignDay,
  {bc9e4d34-5748-42fe-9f88-a6cb56de1fce}, ! Handle
  Chicago/Midway Ann Clg 1% Condns DP=>MDB, ! Name
  27.9,                                   ! Maximum Dry-Bulb Temperature {C}
  8.8,                                    ! Daily Dry-Bulb Temperature Range {deltaC}
  22.8,                                   ! Humidity Indicating Conditions at Maximum Dry-Bulb {BasedOnField A3}
  99099,                                  ! Barometric Pressure {Pa}
  5.6,                                    ! Wind Speed {m/s}
  220,                                    ! Wind Direction {deg}
  0,                                      ! Sky Clearness
  0,                                      ! Rain Indicator
  0,                                      ! Snow Indicator
  21,                                     ! Day of Month
  7,                                      ! Month
  SummerDesignDay,                        ! Day Type
  0,                                      ! Daylight Saving Time Indicator
  Dewpoint,                               ! Humidity Indicating Type
  ,                                       ! Humidity Indicating Day Schedule Name
  DefaultMultipliers,                     ! Dry-Bulb Temperature Range Modifier Type
  ,                                       ! Dry-Bulb Temperature Range Modifier Schedule Name
  ASHRAETau,                              ! Solar Model Indicator
  ,                                       ! Beam Solar Day Schedule Name
  ,                                       ! Diffuse Solar Day Schedule Name
  0.457,                                  ! ASHRAE Taub {dimensionless}
  2.043;                                  ! ASHRAE Taud {dimensionless}

OS:ComponentData,
  {890ff564-c060-4319-8786-8cb329654375}, ! Handle
  Component Data 1,                       ! Name
  {8d346751-3ea4-4d12-b672-c46931baf1a5}, ! UUID
  {960ca69b-3cae-4a0c-9321-c86d90653357}, ! Version UUID
  1366307340,                             ! Creation Timestamp
  1366307340,                             ! Version Timestamp
  {bc9e4d34-5748-42fe-9f88-a6cb56de1fce}; ! Name of Object 1

