
OS:Version,
  {8859c5b1-5ee6-44ee-84f4-fb4ccf0a4cf6}, ! Handle
  0.9.3;                                  ! Version Identifier

OS:SizingPeriod:DesignDay,
  {70b533d4-3e71-4e27-9d39-36c0e2117bed}, ! Handle
  CARIBOU Ann Clg .4% Condns Enth=>MDB,   ! Name
  26.9,                                   ! Maximum Dry-Bulb Temperature {C}
  10.9,                                   ! Daily Dry-Bulb Temperature Range {deltaC}
  66200,                                  ! Humidity Indicating Conditions at Maximum Dry-Bulb {BasedOnField A3}
  99063,                                  ! Barometric Pressure {Pa}
  4.3,                                    ! Wind Speed {m/s}
  250,                                    ! Wind Direction {deg}
  0,                                      ! Sky Clearness
  0,                                      ! Rain Indicator
  0,                                      ! Snow Indicator
  21,                                     ! Day of Month
  7,                                      ! Month
  SummerDesignDay,                        ! Day Type
  0,                                      ! Daylight Saving Time Indicator
  Enthalpy,                               ! Humidity Indicating Type
  ,                                       ! Humidity Indicating Day Schedule Name
  DefaultMultipliers,                     ! Dry-Bulb Temperature Range Modifier Type
  ,                                       ! Dry-Bulb Temperature Range Modifier Schedule Name
  ASHRAETau,                              ! Solar Model Indicator
  ,                                       ! Beam Solar Day Schedule Name
  ,                                       ! Diffuse Solar Day Schedule Name
  0.429,                                  ! ASHRAE Taub {dimensionless}
  2.106;                                  ! ASHRAE Taud {dimensionless}

OS:ComponentData,
  {159925ce-0e31-4d96-9eb6-4ab1e15e8e04}, ! Handle
  Component Data 1,                       ! Name
  {4c965c8c-eb7a-463c-b239-11fcf5172225}, ! UUID
  {89e6adb2-c9bf-49b9-88c8-92bf13c7b8ca}, ! Version UUID
  1366307888,                             ! Creation Timestamp
  1366307888,                             ! Version Timestamp
  {70b533d4-3e71-4e27-9d39-36c0e2117bed}; ! Name of Object 1

