
OS:Version,
  {01d552c1-7cb4-45de-9fae-2d406a8cdf39}, ! Handle
  0.9.3;                                  ! Version Identifier

OS:SizingPeriod:DesignDay,
  {6239f9b7-85e6-471d-9ba7-61a11ec918b3}, ! Handle
  Ainsworth Municipal Ann Clg .4% Condns DB=>MWB, ! Name
  35.9,                                   ! Maximum Dry-Bulb Temperature {C}
  13.2,                                   ! Daily Dry-Bulb Temperature Range {deltaC}
  20.8,                                   ! Humidity Indicating Conditions at Maximum Dry-Bulb {BasedOnField A3}
  92199,                                  ! Barometric Pressure {Pa}
  6.3,                                    ! Wind Speed {m/s}
  200,                                    ! Wind Direction {deg}
  0,                                      ! Sky Clearness
  0,                                      ! Rain Indicator
  0,                                      ! Snow Indicator
  21,                                     ! Day of Month
  7,                                      ! Month
  SummerDesignDay,                        ! Day Type
  0,                                      ! Daylight Saving Time Indicator
  Wetbulb,                                ! Humidity Indicating Type
  ,                                       ! Humidity Indicating Day Schedule Name
  DefaultMultipliers,                     ! Dry-Bulb Temperature Range Modifier Type
  ,                                       ! Dry-Bulb Temperature Range Modifier Schedule Name
  ASHRAETau,                              ! Solar Model Indicator
  ,                                       ! Beam Solar Day Schedule Name
  ,                                       ! Diffuse Solar Day Schedule Name
  0.406,                                  ! ASHRAE Taub {dimensionless}
  2.174;                                  ! ASHRAE Taud {dimensionless}

OS:ComponentData,
  {07407aad-04a5-449c-99ff-0a027f8dcb7e}, ! Handle
  Component Data 1,                       ! Name
  {f6be3d50-6111-4ecc-9697-cb141ee9ca43}, ! UUID
  {d301e332-d76e-4edd-90cf-16a39a6e2096}, ! Version UUID
  1366309077,                             ! Creation Timestamp
  1366309077,                             ! Version Timestamp
  {6239f9b7-85e6-471d-9ba7-61a11ec918b3}; ! Name of Object 1

