
OS:Version,
  {2b01f0ec-6d10-4590-b2d6-877b3a525385}, ! Handle
  0.9.3;                                  ! Version Identifier

OS:SizingPeriod:DesignDay,
  {9cbbf843-0faa-4df4-9e8b-e685fb50d623}, ! Handle
  BISMARCK Ann Clg .4% Condns DP=>MDB,    ! Name
  27.4,                                   ! Maximum Dry-Bulb Temperature {C}
  14.2,                                   ! Daily Dry-Bulb Temperature Range {deltaC}
  21.5,                                   ! Humidity Indicating Conditions at Maximum Dry-Bulb {BasedOnField A3}
  95438,                                  ! Barometric Pressure {Pa}
  6,                                      ! Wind Speed {m/s}
  160,                                    ! Wind Direction {deg}
  0,                                      ! Sky Clearness
  0,                                      ! Rain Indicator
  0,                                      ! Snow Indicator
  21,                                     ! Day of Month
  7,                                      ! Month
  SummerDesignDay,                        ! Day Type
  0,                                      ! Daylight Saving Time Indicator
  Dewpoint,                               ! Humidity Indicating Type
  ,                                       ! Humidity Indicating Day Schedule Name
  DefaultMultipliers,                     ! Dry-Bulb Temperature Range Modifier Type
  ,                                       ! Dry-Bulb Temperature Range Modifier Schedule Name
  ASHRAETau,                              ! Solar Model Indicator
  ,                                       ! Beam Solar Day Schedule Name
  ,                                       ! Diffuse Solar Day Schedule Name
  0.393,                                  ! ASHRAE Taub {dimensionless}
  2.249;                                  ! ASHRAE Taud {dimensionless}

OS:ComponentData,
  {0bf10987-e374-4748-830e-690531a3c47e}, ! Handle
  Component Data 1,                       ! Name
  {bd495a83-71f5-4d6f-8810-accbdd4eb5b5}, ! UUID
  {4c2c726d-4a40-4888-9d61-4c6ac3e2313c}, ! Version UUID
  1366308998,                             ! Creation Timestamp
  1366308998,                             ! Version Timestamp
  {9cbbf843-0faa-4df4-9e8b-e685fb50d623}; ! Name of Object 1

