
OS:Version,
  {51fcb1a9-5b10-4527-ab7e-eb90ed03c0e0}, ! Handle
  0.9.3;                                  ! Version Identifier

OS:SizingPeriod:DesignDay,
  {3650b1d1-0c7b-41a6-b265-d46a54a6a1f4}, ! Handle
  Bismarck Municipal Arpt  Isis Ann Htg Wind 99% Condns WS=>MCDB, ! Name
  -9.9,                                   ! Maximum Dry-Bulb Temperature {C}
  0,                                      ! Daily Dry-Bulb Temperature Range {deltaC}
  -9.9,                                   ! Humidity Indicating Conditions at Maximum Dry-Bulb {BasedOnField A3}
  95438,                                  ! Barometric Pressure {Pa}
  12.4,                                   ! Wind Speed {m/s}
  320,                                    ! Wind Direction {deg}
  0,                                      ! Sky Clearness
  0,                                      ! Rain Indicator
  0,                                      ! Snow Indicator
  21,                                     ! Day of Month
  1,                                      ! Month
  WinterDesignDay,                        ! Day Type
  0,                                      ! Daylight Saving Time Indicator
  Wetbulb,                                ! Humidity Indicating Type
  ,                                       ! Humidity Indicating Day Schedule Name
  DefaultMultipliers,                     ! Dry-Bulb Temperature Range Modifier Type
  ,                                       ! Dry-Bulb Temperature Range Modifier Schedule Name
  ASHRAEClearSky;                         ! Solar Model Indicator

OS:ComponentData,
  {ab3460fd-f7fd-4dee-afb9-3d78cc197232}, ! Handle
  Component Data 1,                       ! Name
  {8f491cad-95ec-4745-bcb6-807e4ef9230a}, ! UUID
  {effc3c61-1c0a-4b19-8185-fdd5827c47ad}, ! Version UUID
  1366309006,                             ! Creation Timestamp
  1366309006,                             ! Version Timestamp
  {3650b1d1-0c7b-41a6-b265-d46a54a6a1f4}; ! Name of Object 1

