
OS:Version,
  {c37f284e-add6-4f8e-9a7b-1f455ad39b2e}, ! Handle
  0.9.3;                                  ! Version Identifier

OS:SizingPeriod:DesignDay,
  {1dfca6fd-9d25-42dc-80d7-32129f9bcd99}, ! Handle
  Barbers Point Nas Ann Clg .4% Condns DP=>MDB, ! Name
  28.2,                                   ! Maximum Dry-Bulb Temperature {C}
  8.6,                                    ! Daily Dry-Bulb Temperature Range {deltaC}
  24,                                     ! Humidity Indicating Conditions at Maximum Dry-Bulb {BasedOnField A3}
  101145,                                 ! Barometric Pressure {Pa}
  5.1,                                    ! Wind Speed {m/s}
  60,                                     ! Wind Direction {deg}
  0,                                      ! Sky Clearness
  0,                                      ! Rain Indicator
  0,                                      ! Snow Indicator
  21,                                     ! Day of Month
  8,                                      ! Month
  SummerDesignDay,                        ! Day Type
  0,                                      ! Daylight Saving Time Indicator
  Dewpoint,                               ! Humidity Indicating Type
  ,                                       ! Humidity Indicating Day Schedule Name
  DefaultMultipliers,                     ! Dry-Bulb Temperature Range Modifier Type
  ,                                       ! Dry-Bulb Temperature Range Modifier Schedule Name
  ASHRAETau,                              ! Solar Model Indicator
  ,                                       ! Beam Solar Day Schedule Name
  ,                                       ! Diffuse Solar Day Schedule Name
  0.382,                                  ! ASHRAE Taub {dimensionless}
  2.522;                                  ! ASHRAE Taud {dimensionless}

OS:ComponentData,
  {7ebc53f8-275c-4ebc-ba3a-9f23074ab0c6}, ! Handle
  Component Data 1,                       ! Name
  {566b8206-8287-4134-b852-2da13959a9ff}, ! UUID
  {102fc6c2-3a4d-4ecb-b537-fc48d5e40675}, ! Version UUID
  1366307074,                             ! Creation Timestamp
  1366307074,                             ! Version Timestamp
  {1dfca6fd-9d25-42dc-80d7-32129f9bcd99}; ! Name of Object 1

