
OS:Version,
  {643ba4cf-e98d-4f05-95a7-6013aea03679}, ! Handle
  0.9.3;                                  ! Version Identifier

OS:SizingPeriod:DesignDay,
  {ac06e7d0-6a50-4fc8-8d58-841b8ba22f95}, ! Handle
  LOUISVILLE Ann Clg 2% Condns DP=>MDB,   ! Name
  27.6,                                   ! Maximum Dry-Bulb Temperature {C}
  9.7,                                    ! Daily Dry-Bulb Temperature Range {deltaC}
  23,                                     ! Humidity Indicating Conditions at Maximum Dry-Bulb {BasedOnField A3}
  99548,                                  ! Barometric Pressure {Pa}
  4.2,                                    ! Wind Speed {m/s}
  240,                                    ! Wind Direction {deg}
  0,                                      ! Sky Clearness
  0,                                      ! Rain Indicator
  0,                                      ! Snow Indicator
  21,                                     ! Day of Month
  7,                                      ! Month
  SummerDesignDay,                        ! Day Type
  0,                                      ! Daylight Saving Time Indicator
  Dewpoint,                               ! Humidity Indicating Type
  ,                                       ! Humidity Indicating Day Schedule Name
  DefaultMultipliers,                     ! Dry-Bulb Temperature Range Modifier Type
  ,                                       ! Dry-Bulb Temperature Range Modifier Schedule Name
  ASHRAETau,                              ! Solar Model Indicator
  ,                                       ! Beam Solar Day Schedule Name
  ,                                       ! Diffuse Solar Day Schedule Name
  0.51,                                   ! ASHRAE Taub {dimensionless}
  1.872;                                  ! ASHRAE Taud {dimensionless}

OS:ComponentData,
  {884b636f-af93-42db-b3cc-5ff1ef3b19db}, ! Handle
  Component Data 1,                       ! Name
  {9def2e7f-aa23-4b08-acb1-4f94e19d931b}, ! UUID
  {194c076f-04ca-476e-9e42-c5f253896a0b}, ! Version UUID
  1366307676,                             ! Creation Timestamp
  1366307676,                             ! Version Timestamp
  {ac06e7d0-6a50-4fc8-8d58-841b8ba22f95}; ! Name of Object 1

