
OS:Version,
  {9ccfffc0-3964-4603-95be-01e37d707007}, ! Handle
  0.9.3;                                  ! Version Identifier

OS:SizingPeriod:DesignDay,
  {27e9df45-5444-4ed3-bed4-858667b322b8}, ! Handle
  Charleston Ann Clg .4% Condns WB=>MDB,  ! Name
  30.1,                                   ! Maximum Dry-Bulb Temperature {C}
  10.7,                                   ! Daily Dry-Bulb Temperature Range {deltaC}
  24.9,                                   ! Humidity Indicating Conditions at Maximum Dry-Bulb {BasedOnField A3}
  97784,                                  ! Barometric Pressure {Pa}
  2.9,                                    ! Wind Speed {m/s}
  240,                                    ! Wind Direction {deg}
  0,                                      ! Sky Clearness
  0,                                      ! Rain Indicator
  0,                                      ! Snow Indicator
  21,                                     ! Day of Month
  7,                                      ! Month
  SummerDesignDay,                        ! Day Type
  0,                                      ! Daylight Saving Time Indicator
  Wetbulb,                                ! Humidity Indicating Type
  ,                                       ! Humidity Indicating Day Schedule Name
  DefaultMultipliers,                     ! Dry-Bulb Temperature Range Modifier Type
  ,                                       ! Dry-Bulb Temperature Range Modifier Schedule Name
  ASHRAETau,                              ! Solar Model Indicator
  ,                                       ! Beam Solar Day Schedule Name
  ,                                       ! Diffuse Solar Day Schedule Name
  0.513,                                  ! ASHRAE Taub {dimensionless}
  1.859;                                  ! ASHRAE Taud {dimensionless}

OS:ComponentData,
  {3a1d56f3-3b9e-4b35-9a6d-6384613f55e1}, ! Handle
  Component Data 1,                       ! Name
  {9d1347be-b719-48fb-97c0-8be35fadd5cf}, ! UUID
  {d014fcc2-dcf8-42b2-98b4-d44b1e81da5b}, ! Version UUID
  1366311620,                             ! Creation Timestamp
  1366311620,                             ! Version Timestamp
  {27e9df45-5444-4ed3-bed4-858667b322b8}; ! Name of Object 1

