
OS:Version,
  {1f9fab8d-e261-4cef-8c74-d8945dae7660}, ! Handle
  0.9.3;                                  ! Version Identifier

OS:SizingPeriod:DesignDay,
  {61cddf9b-6eda-4407-8144-8fdc5c549bb6}, ! Handle
  Killeen Muni  Awos Ann Clg 1% Condns DB=>MWB, ! Name
  36.4,                                   ! Maximum Dry-Bulb Temperature {C}
  11.5,                                   ! Daily Dry-Bulb Temperature Range {deltaC}
  23.4,                                   ! Humidity Indicating Conditions at Maximum Dry-Bulb {BasedOnField A3}
  98264,                                  ! Barometric Pressure {Pa}
  4.4,                                    ! Wind Speed {m/s}
  170,                                    ! Wind Direction {deg}
  0,                                      ! Sky Clearness
  0,                                      ! Rain Indicator
  0,                                      ! Snow Indicator
  21,                                     ! Day of Month
  7,                                      ! Month
  SummerDesignDay,                        ! Day Type
  0,                                      ! Daylight Saving Time Indicator
  Wetbulb,                                ! Humidity Indicating Type
  ,                                       ! Humidity Indicating Day Schedule Name
  DefaultMultipliers,                     ! Dry-Bulb Temperature Range Modifier Type
  ,                                       ! Dry-Bulb Temperature Range Modifier Schedule Name
  ASHRAETau,                              ! Solar Model Indicator
  ,                                       ! Beam Solar Day Schedule Name
  ,                                       ! Diffuse Solar Day Schedule Name
  0.445,                                  ! ASHRAE Taub {dimensionless}
  2.145;                                  ! ASHRAE Taud {dimensionless}

OS:ComponentData,
  {35ba3c45-b013-42cd-bab7-aca06f7acb83}, ! Handle
  Component Data 1,                       ! Name
  {3105bfe3-ea08-4b8c-a920-77cc3473b306}, ! UUID
  {8ef54369-3350-41de-babc-f0039c9ee93b}, ! Version UUID
  1366310767,                             ! Creation Timestamp
  1366310767,                             ! Version Timestamp
  {61cddf9b-6eda-4407-8144-8fdc5c549bb6}; ! Name of Object 1

