
OS:Version,
  {f5a8c634-ac4b-4fbc-81eb-e204e04b38f5}, ! Handle
  0.9.3;                                  ! Version Identifier

OS:SizingPeriod:DesignDay,
  {ead90a56-921c-4e2d-9c72-efbc5ad60bc7}, ! Handle
  DAGGETT Ann Htg Wind 99.6% Condns WS=>MCDB, ! Name
  13.3,                                   ! Maximum Dry-Bulb Temperature {C}
  0,                                      ! Daily Dry-Bulb Temperature Range {deltaC}
  13.3,                                   ! Humidity Indicating Conditions at Maximum Dry-Bulb {BasedOnField A3}
  94458,                                  ! Barometric Pressure {Pa}
  14.8,                                   ! Wind Speed {m/s}
  280,                                    ! Wind Direction {deg}
  0,                                      ! Sky Clearness
  0,                                      ! Rain Indicator
  0,                                      ! Snow Indicator
  21,                                     ! Day of Month
  12,                                     ! Month
  WinterDesignDay,                        ! Day Type
  0,                                      ! Daylight Saving Time Indicator
  Wetbulb,                                ! Humidity Indicating Type
  ,                                       ! Humidity Indicating Day Schedule Name
  DefaultMultipliers,                     ! Dry-Bulb Temperature Range Modifier Type
  ,                                       ! Dry-Bulb Temperature Range Modifier Schedule Name
  ASHRAEClearSky;                         ! Solar Model Indicator

OS:ComponentData,
  {18382eb8-94e0-4f3d-9238-61af7dc95cd1}, ! Handle
  Component Data 1,                       ! Name
  {9100a4fc-3234-4d78-b095-ef5f82be247e}, ! UUID
  {ff61aec1-d523-4ea1-98bd-0a6c33f8569a}, ! Version UUID
  1366306370,                             ! Creation Timestamp
  1366306370,                             ! Version Timestamp
  {ead90a56-921c-4e2d-9c72-efbc5ad60bc7}; ! Name of Object 1

