
OS:Version,
  {bdf9f38b-1099-4e77-8255-4a01d6c7b3db}, ! Handle
  0.9.3;                                  ! Version Identifier

OS:SizingPeriod:DesignDay,
  {05d21181-1ea8-427a-80a5-2a7df5fbe653}, ! Handle
  KAHULUI Ann Clg .4% Condns DB=>MWB,     ! Name
  32.1,                                   ! Maximum Dry-Bulb Temperature {C}
  8.3,                                    ! Daily Dry-Bulb Temperature Range {deltaC}
  23.7,                                   ! Humidity Indicating Conditions at Maximum Dry-Bulb {BasedOnField A3}
  101145,                                 ! Barometric Pressure {Pa}
  7.9,                                    ! Wind Speed {m/s}
  60,                                     ! Wind Direction {deg}
  0,                                      ! Sky Clearness
  0,                                      ! Rain Indicator
  0,                                      ! Snow Indicator
  21,                                     ! Day of Month
  8,                                      ! Month
  SummerDesignDay,                        ! Day Type
  0,                                      ! Daylight Saving Time Indicator
  Wetbulb,                                ! Humidity Indicating Type
  ,                                       ! Humidity Indicating Day Schedule Name
  DefaultMultipliers,                     ! Dry-Bulb Temperature Range Modifier Type
  ,                                       ! Dry-Bulb Temperature Range Modifier Schedule Name
  ASHRAETau,                              ! Solar Model Indicator
  ,                                       ! Beam Solar Day Schedule Name
  ,                                       ! Diffuse Solar Day Schedule Name
  0.383,                                  ! ASHRAE Taub {dimensionless}
  2.519;                                  ! ASHRAE Taud {dimensionless}

OS:ComponentData,
  {60ba91a0-c2fc-43f0-823e-9d459c23aeca}, ! Handle
  Component Data 1,                       ! Name
  {b09ffb65-5c70-4f4a-83b9-e3c2a69c4c2e}, ! UUID
  {3063cfee-7029-4de6-9f2d-2d08c1ac327b}, ! Version UUID
  1366307097,                             ! Creation Timestamp
  1366307097,                             ! Version Timestamp
  {05d21181-1ea8-427a-80a5-2a7df5fbe653}; ! Name of Object 1

