
OS:Version,
  {18beee3d-b8bc-4d34-8a52-3be640b66a9a}, ! Handle
  0.9.3;                                  ! Version Identifier

OS:SizingPeriod:DesignDay,
  {511fd132-03d0-4d9f-9f67-46f4126b821e}, ! Handle
  Lewistown Ann Htg Wind 99% Condns WS=>MCDB, ! Name
  3.9,                                    ! Maximum Dry-Bulb Temperature {C}
  0,                                      ! Daily Dry-Bulb Temperature Range {deltaC}
  3.9,                                    ! Humidity Indicating Conditions at Maximum Dry-Bulb {BasedOnField A3}
  86970,                                  ! Barometric Pressure {Pa}
  12.9,                                   ! Wind Speed {m/s}
  120,                                    ! Wind Direction {deg}
  0,                                      ! Sky Clearness
  0,                                      ! Rain Indicator
  0,                                      ! Snow Indicator
  21,                                     ! Day of Month
  12,                                     ! Month
  WinterDesignDay,                        ! Day Type
  0,                                      ! Daylight Saving Time Indicator
  Wetbulb,                                ! Humidity Indicating Type
  ,                                       ! Humidity Indicating Day Schedule Name
  DefaultMultipliers,                     ! Dry-Bulb Temperature Range Modifier Type
  ,                                       ! Dry-Bulb Temperature Range Modifier Schedule Name
  ASHRAEClearSky;                         ! Solar Model Indicator

OS:ComponentData,
  {53a9ad3b-2ded-4f2e-b72a-730a9a348a7c}, ! Handle
  Component Data 1,                       ! Name
  {93b73963-7fbe-4b27-8c45-17be5cb31cdd}, ! UUID
  {0279e868-97e4-4932-ae2e-ea0e00ce6aac}, ! Version UUID
  1366308815,                             ! Creation Timestamp
  1366308815,                             ! Version Timestamp
  {511fd132-03d0-4d9f-9f67-46f4126b821e}; ! Name of Object 1

