
OS:Version,
  {686a2920-70fb-4f72-a95a-04a34885f9c2}, ! Handle
  0.9.3;                                  ! Version Identifier

OS:SizingPeriod:DesignDay,
  {98ec7d42-ea98-475b-a5a7-470df45891b5}, ! Handle
  BIRMINGHAM Ann Clg 1% Condns Enth=>MDB, ! Name
  30.9,                                   ! Maximum Dry-Bulb Temperature {C}
  10.3,                                   ! Daily Dry-Bulb Temperature Range {deltaC}
  78300,                                  ! Humidity Indicating Conditions at Maximum Dry-Bulb {BasedOnField A3}
  99040,                                  ! Barometric Pressure {Pa}
  3.5,                                    ! Wind Speed {m/s}
  330,                                    ! Wind Direction {deg}
  0,                                      ! Sky Clearness
  0,                                      ! Rain Indicator
  0,                                      ! Snow Indicator
  21,                                     ! Day of Month
  7,                                      ! Month
  SummerDesignDay,                        ! Day Type
  0,                                      ! Daylight Saving Time Indicator
  Enthalpy,                               ! Humidity Indicating Type
  ,                                       ! Humidity Indicating Day Schedule Name
  DefaultMultipliers,                     ! Dry-Bulb Temperature Range Modifier Type
  ,                                       ! Dry-Bulb Temperature Range Modifier Schedule Name
  ASHRAETau,                              ! Solar Model Indicator
  ,                                       ! Beam Solar Day Schedule Name
  ,                                       ! Diffuse Solar Day Schedule Name
  0.583,                                  ! ASHRAE Taub {dimensionless}
  1.723;                                  ! ASHRAE Taud {dimensionless}

OS:ComponentData,
  {5bd5d93a-6988-4067-b17d-07be052e097c}, ! Handle
  Component Data 1,                       ! Name
  {efa4ee5f-34e2-4a04-b587-01ceae229c18}, ! UUID
  {156a6708-6cc4-431c-8b77-5eb16a51b855}, ! Version UUID
  1366305641,                             ! Creation Timestamp
  1366305641,                             ! Version Timestamp
  {98ec7d42-ea98-475b-a5a7-470df45891b5}; ! Name of Object 1

