
OS:Version,
  {62ff5608-ad2f-48a2-b919-a3b824fe74d2}, ! Handle
  0.9.3;                                  ! Version Identifier

OS:SizingPeriod:DesignDay,
  {00c4fbd9-0972-4647-b4e7-08ec6ffa05e8}, ! Handle
  Beale Afb Ann Clg 1% Condns DB=>MWB,    ! Name
  36.7,                                   ! Maximum Dry-Bulb Temperature {C}
  16.6,                                   ! Daily Dry-Bulb Temperature Range {deltaC}
  20.7,                                   ! Humidity Indicating Conditions at Maximum Dry-Bulb {BasedOnField A3}
  100869,                                 ! Barometric Pressure {Pa}
  2.4,                                    ! Wind Speed {m/s}
  200,                                    ! Wind Direction {deg}
  0,                                      ! Sky Clearness
  0,                                      ! Rain Indicator
  0,                                      ! Snow Indicator
  21,                                     ! Day of Month
  7,                                      ! Month
  SummerDesignDay,                        ! Day Type
  0,                                      ! Daylight Saving Time Indicator
  Wetbulb,                                ! Humidity Indicating Type
  ,                                       ! Humidity Indicating Day Schedule Name
  DefaultMultipliers,                     ! Dry-Bulb Temperature Range Modifier Type
  ,                                       ! Dry-Bulb Temperature Range Modifier Schedule Name
  ASHRAETau,                              ! Solar Model Indicator
  ,                                       ! Beam Solar Day Schedule Name
  ,                                       ! Diffuse Solar Day Schedule Name
  0.381,                                  ! ASHRAE Taub {dimensionless}
  2.368;                                  ! ASHRAE Taud {dimensionless}

OS:ComponentData,
  {24f2a19d-17c2-4c64-900c-2f3a8dd4c963}, ! Handle
  Component Data 1,                       ! Name
  {abe9b031-e333-4c5a-b209-c9e6df39bc1c}, ! UUID
  {34ae8479-4367-4fb1-a186-fb31bf80c937}, ! Version UUID
  1366306379,                             ! Creation Timestamp
  1366306379,                             ! Version Timestamp
  {00c4fbd9-0972-4647-b4e7-08ec6ffa05e8}; ! Name of Object 1

