
OS:Version,
  {31f74e69-e83f-40d9-ad73-5cd5887d5335}, ! Handle
  0.9.3;                                  ! Version Identifier

OS:SizingPeriod:DesignDay,
  {61d54c28-9b80-456d-a95a-93aae15ac68a}, ! Handle
  LANSING Ann Clg 1% Condns Enth=>MDB,    ! Name
  28.3,                                   ! Maximum Dry-Bulb Temperature {C}
  12,                                     ! Daily Dry-Bulb Temperature Range {deltaC}
  71900,                                  ! Humidity Indicating Conditions at Maximum Dry-Bulb {BasedOnField A3}
  98287,                                  ! Barometric Pressure {Pa}
  5.6,                                    ! Wind Speed {m/s}
  240,                                    ! Wind Direction {deg}
  0,                                      ! Sky Clearness
  0,                                      ! Rain Indicator
  0,                                      ! Snow Indicator
  21,                                     ! Day of Month
  7,                                      ! Month
  SummerDesignDay,                        ! Day Type
  0,                                      ! Daylight Saving Time Indicator
  Enthalpy,                               ! Humidity Indicating Type
  ,                                       ! Humidity Indicating Day Schedule Name
  DefaultMultipliers,                     ! Dry-Bulb Temperature Range Modifier Type
  ,                                       ! Dry-Bulb Temperature Range Modifier Schedule Name
  ASHRAETau,                              ! Solar Model Indicator
  ,                                       ! Beam Solar Day Schedule Name
  ,                                       ! Diffuse Solar Day Schedule Name
  0.429,                                  ! ASHRAE Taub {dimensionless}
  2.133;                                  ! ASHRAE Taud {dimensionless}

OS:ComponentData,
  {e2b24454-741b-4fdf-9d15-f4f263038604}, ! Handle
  Component Data 1,                       ! Name
  {59e223cc-702c-44b7-8962-8ac226d6ed90}, ! UUID
  {e679ace4-d563-4e45-8384-a7a110da4dd6}, ! Version UUID
  1366308057,                             ! Creation Timestamp
  1366308057,                             ! Version Timestamp
  {61d54c28-9b80-456d-a95a-93aae15ac68a}; ! Name of Object 1

