
OS:Version,
  {ec817d01-6f4f-4e73-81f7-6e414ed7416f}, ! Handle
  0.9.3;                                  ! Version Identifier

OS:SizingPeriod:DesignDay,
  {63a4612e-e47b-4e3c-a6d2-dbd03b166dc9}, ! Handle
  Lakehurst NAS Ann Clg 1% Condns DP=>MDB, ! Name
  27.7,                                   ! Maximum Dry-Bulb Temperature {C}
  10.6,                                   ! Daily Dry-Bulb Temperature Range {deltaC}
  23.7,                                   ! Humidity Indicating Conditions at Maximum Dry-Bulb {BasedOnField A3}
  100917,                                 ! Barometric Pressure {Pa}
  4,                                      ! Wind Speed {m/s}
  240,                                    ! Wind Direction {deg}
  0,                                      ! Sky Clearness
  0,                                      ! Rain Indicator
  0,                                      ! Snow Indicator
  21,                                     ! Day of Month
  7,                                      ! Month
  SummerDesignDay,                        ! Day Type
  0,                                      ! Daylight Saving Time Indicator
  Dewpoint,                               ! Humidity Indicating Type
  ,                                       ! Humidity Indicating Day Schedule Name
  DefaultMultipliers,                     ! Dry-Bulb Temperature Range Modifier Type
  ,                                       ! Dry-Bulb Temperature Range Modifier Schedule Name
  ASHRAETau,                              ! Solar Model Indicator
  ,                                       ! Beam Solar Day Schedule Name
  ,                                       ! Diffuse Solar Day Schedule Name
  0.539,                                  ! ASHRAE Taub {dimensionless}
  1.807;                                  ! ASHRAE Taud {dimensionless}

OS:ComponentData,
  {96d51c2d-d49b-4c44-9f8a-c086f968c5c8}, ! Handle
  Component Data 1,                       ! Name
  {adc21454-8972-4f80-8807-59eda5ed0223}, ! UUID
  {23c668b9-bfd0-4674-a1a5-1d637bd40925}, ! Version UUID
  1366309309,                             ! Creation Timestamp
  1366309309,                             ! Version Timestamp
  {63a4612e-e47b-4e3c-a6d2-dbd03b166dc9}; ! Name of Object 1

