
OS:Version,
  {06f803d4-c276-432c-be87-7dd06c689118}, ! Handle
  0.9.3;                                  ! Version Identifier

OS:SizingPeriod:DesignDay,
  {ec39089d-8724-4b8d-8548-455069827675}, ! Handle
  Bowling Green Warren Co Ap Ann Clg 1% Condns WB=>MDB, ! Name
  30.7,                                   ! Maximum Dry-Bulb Temperature {C}
  10.7,                                   ! Daily Dry-Bulb Temperature Range {deltaC}
  25.2,                                   ! Humidity Indicating Conditions at Maximum Dry-Bulb {BasedOnField A3}
  99406,                                  ! Barometric Pressure {Pa}
  3.8,                                    ! Wind Speed {m/s}
  240,                                    ! Wind Direction {deg}
  0,                                      ! Sky Clearness
  0,                                      ! Rain Indicator
  0,                                      ! Snow Indicator
  21,                                     ! Day of Month
  7,                                      ! Month
  SummerDesignDay,                        ! Day Type
  0,                                      ! Daylight Saving Time Indicator
  Wetbulb,                                ! Humidity Indicating Type
  ,                                       ! Humidity Indicating Day Schedule Name
  DefaultMultipliers,                     ! Dry-Bulb Temperature Range Modifier Type
  ,                                       ! Dry-Bulb Temperature Range Modifier Schedule Name
  ASHRAETau,                              ! Solar Model Indicator
  ,                                       ! Beam Solar Day Schedule Name
  ,                                       ! Diffuse Solar Day Schedule Name
  0.527,                                  ! ASHRAE Taub {dimensionless}
  1.838;                                  ! ASHRAE Taud {dimensionless}

OS:ComponentData,
  {bfeb7516-4e6a-46ac-a1e5-b564cc67b081}, ! Handle
  Component Data 1,                       ! Name
  {1bca2334-0b59-45da-a8d5-902d21a8cd1f}, ! UUID
  {55a67339-e291-4ee5-89b8-81f0eb770506}, ! Version UUID
  1366307611,                             ! Creation Timestamp
  1366307611,                             ! Version Timestamp
  {ec39089d-8724-4b8d-8548-455069827675}; ! Name of Object 1

