
OS:Version,
  {d950018e-e130-42b1-84f4-c4704b388e6d}, ! Handle
  0.9.3;                                  ! Version Identifier

OS:SizingPeriod:DesignDay,
  {07c8d416-c05f-4f6a-a480-fe243760d4e9}, ! Handle
  AKRON Ann Clg 1% Condns DP=>MDB,        ! Name
  25.7,                                   ! Maximum Dry-Bulb Temperature {C}
  10.4,                                   ! Daily Dry-Bulb Temperature Range {deltaC}
  21.8,                                   ! Humidity Indicating Conditions at Maximum Dry-Bulb {BasedOnField A3}
  96877,                                  ! Barometric Pressure {Pa}
  4.6,                                    ! Wind Speed {m/s}
  230,                                    ! Wind Direction {deg}
  0,                                      ! Sky Clearness
  0,                                      ! Rain Indicator
  0,                                      ! Snow Indicator
  21,                                     ! Day of Month
  7,                                      ! Month
  SummerDesignDay,                        ! Day Type
  0,                                      ! Daylight Saving Time Indicator
  Dewpoint,                               ! Humidity Indicating Type
  ,                                       ! Humidity Indicating Day Schedule Name
  DefaultMultipliers,                     ! Dry-Bulb Temperature Range Modifier Type
  ,                                       ! Dry-Bulb Temperature Range Modifier Schedule Name
  ASHRAETau,                              ! Solar Model Indicator
  ,                                       ! Beam Solar Day Schedule Name
  ,                                       ! Diffuse Solar Day Schedule Name
  0.464,                                  ! ASHRAE Taub {dimensionless}
  1.994;                                  ! ASHRAE Taud {dimensionless}

OS:ComponentData,
  {f98064d7-d57b-4a43-a46c-e33c3f0e27d9}, ! Handle
  Component Data 1,                       ! Name
  {a9e380cc-70a3-44eb-9d85-98124ae3e610}, ! UUID
  {ac886312-eabb-4ff2-ae5c-ca15ea15c957}, ! Version UUID
  1366309762,                             ! Creation Timestamp
  1366309762,                             ! Version Timestamp
  {07c8d416-c05f-4f6a-a480-fe243760d4e9}; ! Name of Object 1

