
OS:Version,
  {648277d1-4f4a-4634-b509-0281ad2f7af8}, ! Handle
  0.9.3;                                  ! Version Identifier

OS:SizingPeriod:DesignDay,
  {7cba6337-98b4-42f4-91e1-5b97afc23e10}, ! Handle
  GRAND_RAPIDS Ann Clg 2% Condns DP=>MDB, ! Name
  25.3,                                   ! Maximum Dry-Bulb Temperature {C}
  11.1,                                   ! Daily Dry-Bulb Temperature Range {deltaC}
  21.2,                                   ! Humidity Indicating Conditions at Maximum Dry-Bulb {BasedOnField A3}
  98416,                                  ! Barometric Pressure {Pa}
  5.8,                                    ! Wind Speed {m/s}
  240,                                    ! Wind Direction {deg}
  0,                                      ! Sky Clearness
  0,                                      ! Rain Indicator
  0,                                      ! Snow Indicator
  21,                                     ! Day of Month
  7,                                      ! Month
  SummerDesignDay,                        ! Day Type
  0,                                      ! Daylight Saving Time Indicator
  Dewpoint,                               ! Humidity Indicating Type
  ,                                       ! Humidity Indicating Day Schedule Name
  DefaultMultipliers,                     ! Dry-Bulb Temperature Range Modifier Type
  ,                                       ! Dry-Bulb Temperature Range Modifier Schedule Name
  ASHRAETau,                              ! Solar Model Indicator
  ,                                       ! Beam Solar Day Schedule Name
  ,                                       ! Diffuse Solar Day Schedule Name
  0.424,                                  ! ASHRAE Taub {dimensionless}
  2.173;                                  ! ASHRAE Taud {dimensionless}

OS:ComponentData,
  {52817962-28c5-4b7a-986c-ffdb001e4eab}, ! Handle
  Component Data 1,                       ! Name
  {4193ff46-151d-4efa-9941-9dd21edb04eb}, ! UUID
  {20163cb5-2a70-4744-bd6a-5ea5c5dc5076}, ! Version UUID
  1366308018,                             ! Creation Timestamp
  1366308018,                             ! Version Timestamp
  {7cba6337-98b4-42f4-91e1-5b97afc23e10}; ! Name of Object 1

