
OS:Version,
  {e55aab05-25e1-4261-8923-bcbb45f1d4f7}, ! Handle
  0.9.3;                                  ! Version Identifier

OS:SizingPeriod:DesignDay,
  {26f396ba-3194-4731-a37b-fdee4db908d9}, ! Handle
  Kingsville Ann Htg Wind 99% Condns WS=>MCDB, ! Name
  18,                                     ! Maximum Dry-Bulb Temperature {C}
  0,                                      ! Daily Dry-Bulb Temperature Range {deltaC}
  18,                                     ! Humidity Indicating Conditions at Maximum Dry-Bulb {BasedOnField A3}
  101121,                                 ! Barometric Pressure {Pa}
  10.7,                                   ! Wind Speed {m/s}
  0,                                      ! Wind Direction {deg}
  0,                                      ! Sky Clearness
  0,                                      ! Rain Indicator
  0,                                      ! Snow Indicator
  21,                                     ! Day of Month
  1,                                      ! Month
  WinterDesignDay,                        ! Day Type
  0,                                      ! Daylight Saving Time Indicator
  Wetbulb,                                ! Humidity Indicating Type
  ,                                       ! Humidity Indicating Day Schedule Name
  DefaultMultipliers,                     ! Dry-Bulb Temperature Range Modifier Type
  ,                                       ! Dry-Bulb Temperature Range Modifier Schedule Name
  ASHRAEClearSky;                         ! Solar Model Indicator

OS:ComponentData,
  {0b6ba5df-fc2c-4d91-835f-dc49031b8bca}, ! Handle
  Component Data 1,                       ! Name
  {93576afe-25f9-4337-8599-6b3af1ba6db0}, ! UUID
  {0495c871-ec43-41d3-aca6-6941b6019c4b}, ! Version UUID
  1366310775,                             ! Creation Timestamp
  1366310775,                             ! Version Timestamp
  {26f396ba-3194-4731-a37b-fdee4db908d9}; ! Name of Object 1

