
OS:Version,
  {ee51dc69-3141-42c3-ab37-e3e1e625734c}, ! Handle
  0.9.3;                                  ! Version Identifier

OS:SizingPeriod:DesignDay,
  {4f92fb93-d18e-4a36-af56-4e4266705843}, ! Handle
  Bettles Field Ann Hum_n 99% Condns DP=>MCDB, ! Name
  -37.3,                                  ! Maximum Dry-Bulb Temperature {C}
  0,                                      ! Daily Dry-Bulb Temperature Range {deltaC}
  -41.8,                                  ! Humidity Indicating Conditions at Maximum Dry-Bulb {BasedOnField A3}
  98992,                                  ! Barometric Pressure {Pa}
  0.6,                                    ! Wind Speed {m/s}
  340,                                    ! Wind Direction {deg}
  0,                                      ! Sky Clearness
  0,                                      ! Rain Indicator
  0,                                      ! Snow Indicator
  21,                                     ! Day of Month
  1,                                      ! Month
  WinterDesignDay,                        ! Day Type
  0,                                      ! Daylight Saving Time Indicator
  Dewpoint,                               ! Humidity Indicating Type
  ,                                       ! Humidity Indicating Day Schedule Name
  DefaultMultipliers,                     ! Dry-Bulb Temperature Range Modifier Type
  ,                                       ! Dry-Bulb Temperature Range Modifier Schedule Name
  ASHRAEClearSky;                         ! Solar Model Indicator

OS:ComponentData,
  {a6046189-153a-47ff-92aa-10e4f1735226}, ! Handle
  Component Data 1,                       ! Name
  {0211edd1-4511-4c78-bbde-3c04f3256637}, ! UUID
  {9622f278-d094-4d2a-8763-fb8f8899a13f}, ! Version UUID
  1366304767,                             ! Creation Timestamp
  1366304767,                             ! Version Timestamp
  {4f92fb93-d18e-4a36-af56-4e4266705843}; ! Name of Object 1

