
OS:Version,
  {c36b4a84-962e-45c5-a813-c383d3dc069d}, ! Handle
  0.9.3;                                  ! Version Identifier

OS:SizingPeriod:DesignDay,
  {b47e0691-6aec-44a0-8115-88860db5ee45}, ! Handle
  Las Vegas Mccarran Intl Ap Ann Clg .4% Condns Enth=>MDB, ! Name
  35.6,                                   ! Maximum Dry-Bulb Temperature {C}
  13,                                     ! Daily Dry-Bulb Temperature Range {deltaC}
  69500,                                  ! Humidity Indicating Conditions at Maximum Dry-Bulb {BasedOnField A3}
  93779,                                  ! Barometric Pressure {Pa}
  4.9,                                    ! Wind Speed {m/s}
  230,                                    ! Wind Direction {deg}
  0,                                      ! Sky Clearness
  0,                                      ! Rain Indicator
  0,                                      ! Snow Indicator
  21,                                     ! Day of Month
  7,                                      ! Month
  SummerDesignDay,                        ! Day Type
  0,                                      ! Daylight Saving Time Indicator
  Enthalpy,                               ! Humidity Indicating Type
  ,                                       ! Humidity Indicating Day Schedule Name
  DefaultMultipliers,                     ! Dry-Bulb Temperature Range Modifier Type
  ,                                       ! Dry-Bulb Temperature Range Modifier Schedule Name
  ASHRAETau,                              ! Solar Model Indicator
  ,                                       ! Beam Solar Day Schedule Name
  ,                                       ! Diffuse Solar Day Schedule Name
  0.55,                                   ! ASHRAE Taub {dimensionless}
  1.674;                                  ! ASHRAE Taud {dimensionless}

OS:ComponentData,
  {d3050e2d-e962-4810-a884-f39db62b8269}, ! Handle
  Component Data 1,                       ! Name
  {beac33fd-a0fa-4bb8-a670-41d60ddf60ad}, ! UUID
  {ea6589f6-0cb1-447f-bec9-21afec59ddda}, ! Version UUID
  1366309502,                             ! Creation Timestamp
  1366309502,                             ! Version Timestamp
  {b47e0691-6aec-44a0-8115-88860db5ee45}; ! Name of Object 1

