
OS:Version,
  {4b4a0c87-0d25-4be9-9bc4-6dd004db2a4c}, ! Handle
  0.9.3;                                  ! Version Identifier

OS:SizingPeriod:DesignDay,
  {7228237f-416a-4335-bb6d-60f9cfe8e561}, ! Handle
  BALTIMORE Ann Hum_n 99.6% Condns DP=>MCDB, ! Name
  -7.9,                                   ! Maximum Dry-Bulb Temperature {C}
  0,                                      ! Daily Dry-Bulb Temperature Range {deltaC}
  -19.6,                                  ! Humidity Indicating Conditions at Maximum Dry-Bulb {BasedOnField A3}
  100762,                                 ! Barometric Pressure {Pa}
  3.9,                                    ! Wind Speed {m/s}
  290,                                    ! Wind Direction {deg}
  0,                                      ! Sky Clearness
  0,                                      ! Rain Indicator
  0,                                      ! Snow Indicator
  21,                                     ! Day of Month
  1,                                      ! Month
  WinterDesignDay,                        ! Day Type
  0,                                      ! Daylight Saving Time Indicator
  Dewpoint,                               ! Humidity Indicating Type
  ,                                       ! Humidity Indicating Day Schedule Name
  DefaultMultipliers,                     ! Dry-Bulb Temperature Range Modifier Type
  ,                                       ! Dry-Bulb Temperature Range Modifier Schedule Name
  ASHRAEClearSky;                         ! Solar Model Indicator

OS:ComponentData,
  {4433fa23-25d4-416c-bcd8-61dafe93bc5a}, ! Handle
  Component Data 1,                       ! Name
  {28525244-0b31-48a2-a200-0b2776f14e0d}, ! UUID
  {76674f71-b90d-4f56-a66b-4adf7c5316cb}, ! Version UUID
  1366307844,                             ! Creation Timestamp
  1366307844,                             ! Version Timestamp
  {7228237f-416a-4335-bb6d-60f9cfe8e561}; ! Name of Object 1

