
OS:Version,
  {9b35fe0e-9266-475b-9976-bc03627c5c6b}, ! Handle
  0.9.3;                                  ! Version Identifier

OS:SizingPeriod:DesignDay,
  {eddbcdfc-f78b-4a92-9e50-b31700ac0bf9}, ! Handle
  BURNS Ann Clg 1% Condns Enth=>MDB,      ! Name
  29.1,                                   ! Maximum Dry-Bulb Temperature {C}
  20.6,                                   ! Daily Dry-Bulb Temperature Range {deltaC}
  50400,                                  ! Humidity Indicating Conditions at Maximum Dry-Bulb {BasedOnField A3}
  86959,                                  ! Barometric Pressure {Pa}
  3.4,                                    ! Wind Speed {m/s}
  200,                                    ! Wind Direction {deg}
  0,                                      ! Sky Clearness
  0,                                      ! Rain Indicator
  0,                                      ! Snow Indicator
  21,                                     ! Day of Month
  7,                                      ! Month
  SummerDesignDay,                        ! Day Type
  0,                                      ! Daylight Saving Time Indicator
  Enthalpy,                               ! Humidity Indicating Type
  ,                                       ! Humidity Indicating Day Schedule Name
  DefaultMultipliers,                     ! Dry-Bulb Temperature Range Modifier Type
  ,                                       ! Dry-Bulb Temperature Range Modifier Schedule Name
  ASHRAETau,                              ! Solar Model Indicator
  ,                                       ! Beam Solar Day Schedule Name
  ,                                       ! Diffuse Solar Day Schedule Name
  0.372,                                  ! ASHRAE Taub {dimensionless}
  2.219;                                  ! ASHRAE Taud {dimensionless}

OS:ComponentData,
  {4d1dfd09-9a1b-47b4-aa8c-33cb83e03d73}, ! Handle
  Component Data 1,                       ! Name
  {5cad76dc-6ab7-40b0-a68e-b11c75fd772e}, ! UUID
  {17354cc5-ef2a-48ac-ad31-e96c9f37a3aa}, ! Version UUID
  1366309993,                             ! Creation Timestamp
  1366309993,                             ! Version Timestamp
  {eddbcdfc-f78b-4a92-9e50-b31700ac0bf9}; ! Name of Object 1

