
OS:Version,
  {de6f7bc8-a7a8-4120-b4b1-af97b868bde2}, ! Handle
  0.9.3;                                  ! Version Identifier

OS:SizingPeriod:DesignDay,
  {3af8a06f-c6cb-4016-9066-617c8d5661a7}, ! Handle
  Longview Gregg County Ap  Ove Ann Clg 2% Condns Enth=>MDB, ! Name
  31.3,                                   ! Maximum Dry-Bulb Temperature {C}
  11.6,                                   ! Daily Dry-Bulb Temperature Range {deltaC}
  77700,                                  ! Humidity Indicating Conditions at Maximum Dry-Bulb {BasedOnField A3}
  99583,                                  ! Barometric Pressure {Pa}
  3.5,                                    ! Wind Speed {m/s}
  200,                                    ! Wind Direction {deg}
  0,                                      ! Sky Clearness
  0,                                      ! Rain Indicator
  0,                                      ! Snow Indicator
  21,                                     ! Day of Month
  8,                                      ! Month
  SummerDesignDay,                        ! Day Type
  0,                                      ! Daylight Saving Time Indicator
  Enthalpy,                               ! Humidity Indicating Type
  ,                                       ! Humidity Indicating Day Schedule Name
  DefaultMultipliers,                     ! Dry-Bulb Temperature Range Modifier Type
  ,                                       ! Dry-Bulb Temperature Range Modifier Schedule Name
  ASHRAETau,                              ! Solar Model Indicator
  ,                                       ! Beam Solar Day Schedule Name
  ,                                       ! Diffuse Solar Day Schedule Name
  0.491,                                  ! ASHRAE Taub {dimensionless}
  1.993;                                  ! ASHRAE Taud {dimensionless}

