
OS:Version,
  {0cd7f87f-05ad-4f5e-979a-783d20ecfd66}, ! Handle
  0.9.3;                                  ! Version Identifier

OS:SizingPeriod:DesignDay,
  {49a3e326-0c28-47a7-b447-29cc814fc39d}, ! Handle
  Garden City Municipal Ap Ann Clg 2% Condns WB=>MDB, ! Name
  30.8,                                   ! Maximum Dry-Bulb Temperature {C}
  14.7,                                   ! Daily Dry-Bulb Temperature Range {deltaC}
  21.8,                                   ! Humidity Indicating Conditions at Maximum Dry-Bulb {BasedOnField A3}
  91212,                                  ! Barometric Pressure {Pa}
  7.3,                                    ! Wind Speed {m/s}
  180,                                    ! Wind Direction {deg}
  0,                                      ! Sky Clearness
  0,                                      ! Rain Indicator
  0,                                      ! Snow Indicator
  21,                                     ! Day of Month
  7,                                      ! Month
  SummerDesignDay,                        ! Day Type
  0,                                      ! Daylight Saving Time Indicator
  Wetbulb,                                ! Humidity Indicating Type
  ,                                       ! Humidity Indicating Day Schedule Name
  DefaultMultipliers,                     ! Dry-Bulb Temperature Range Modifier Type
  ,                                       ! Dry-Bulb Temperature Range Modifier Schedule Name
  ASHRAETau,                              ! Solar Model Indicator
  ,                                       ! Beam Solar Day Schedule Name
  ,                                       ! Diffuse Solar Day Schedule Name
  0.422,                                  ! ASHRAE Taub {dimensionless}
  2.104;                                  ! ASHRAE Taud {dimensionless}

OS:ComponentData,
  {df91be55-6107-47c8-bbc1-61fbfcafd168}, ! Handle
  Component Data 1,                       ! Name
  {11015914-3ace-442e-a845-0b91c868f8c1}, ! UUID
  {81f36761-f6f3-4096-8529-5f747b0bff7a}, ! Version UUID
  1366307527,                             ! Creation Timestamp
  1366307527,                             ! Version Timestamp
  {49a3e326-0c28-47a7-b447-29cc814fc39d}; ! Name of Object 1

