
OS:Version,
  {245f6040-e87f-436b-bb0d-25c24db2c814}, ! Handle
  0.9.3;                                  ! Version Identifier

OS:SizingPeriod:DesignDay,
  {b1c041a1-b38a-4800-809f-73aaa16e6df3}, ! Handle
  Fort Knox Godman Aaf Ann Hum_n 99% Condns DP=>MCDB, ! Name
  -8.9,                                   ! Maximum Dry-Bulb Temperature {C}
  0,                                      ! Daily Dry-Bulb Temperature Range {deltaC}
  -15.8,                                  ! Humidity Indicating Conditions at Maximum Dry-Bulb {BasedOnField A3}
  98487,                                  ! Barometric Pressure {Pa}
  2.6,                                    ! Wind Speed {m/s}
  280,                                    ! Wind Direction {deg}
  0,                                      ! Sky Clearness
  0,                                      ! Rain Indicator
  0,                                      ! Snow Indicator
  21,                                     ! Day of Month
  1,                                      ! Month
  WinterDesignDay,                        ! Day Type
  0,                                      ! Daylight Saving Time Indicator
  Dewpoint,                               ! Humidity Indicating Type
  ,                                       ! Humidity Indicating Day Schedule Name
  DefaultMultipliers,                     ! Dry-Bulb Temperature Range Modifier Type
  ,                                       ! Dry-Bulb Temperature Range Modifier Schedule Name
  ASHRAEClearSky;                         ! Solar Model Indicator

