
OS:Version,
  {6d9b6a6f-3baa-486b-9f4b-72dd90b0a169}, ! Handle
  0.9.3;                                  ! Version Identifier

OS:SizingPeriod:DesignDay,
  {ccb31343-d4e0-4273-8d04-b5f0cf14b6cc}, ! Handle
  GRAND_ISLAND Ann Clg 1% Condns DB=>MWB, ! Name
  33.9,                                   ! Maximum Dry-Bulb Temperature {C}
  12.2,                                   ! Daily Dry-Bulb Temperature Range {deltaC}
  22.8,                                   ! Humidity Indicating Conditions at Maximum Dry-Bulb {BasedOnField A3}
  94708,                                  ! Barometric Pressure {Pa}
  6.5,                                    ! Wind Speed {m/s}
  180,                                    ! Wind Direction {deg}
  0,                                      ! Sky Clearness
  0,                                      ! Rain Indicator
  0,                                      ! Snow Indicator
  21,                                     ! Day of Month
  7,                                      ! Month
  SummerDesignDay,                        ! Day Type
  0,                                      ! Daylight Saving Time Indicator
  Wetbulb,                                ! Humidity Indicating Type
  ,                                       ! Humidity Indicating Day Schedule Name
  DefaultMultipliers,                     ! Dry-Bulb Temperature Range Modifier Type
  ,                                       ! Dry-Bulb Temperature Range Modifier Schedule Name
  ASHRAETau,                              ! Solar Model Indicator
  ,                                       ! Beam Solar Day Schedule Name
  ,                                       ! Diffuse Solar Day Schedule Name
  0.405,                                  ! ASHRAE Taub {dimensionless}
  2.23;                                   ! ASHRAE Taud {dimensionless}

