
OS:Version,
  {a7362cfc-4a00-4eb3-bf1b-457a680a1608}, ! Handle
  0.9.3;                                  ! Version Identifier

OS:SizingPeriod:DesignDay,
  {cbf5d9bb-2c65-4133-92da-525fa40a37f6}, ! Handle
  Alpena Ann Clg 2% Condns Enth=>MDB,     ! Name
  25.6,                                   ! Maximum Dry-Bulb Temperature {C}
  12.7,                                   ! Daily Dry-Bulb Temperature Range {deltaC}
  62700,                                  ! Humidity Indicating Conditions at Maximum Dry-Bulb {BasedOnField A3}
  98816,                                  ! Barometric Pressure {Pa}
  4.8,                                    ! Wind Speed {m/s}
  230,                                    ! Wind Direction {deg}
  0,                                      ! Sky Clearness
  0,                                      ! Rain Indicator
  0,                                      ! Snow Indicator
  21,                                     ! Day of Month
  7,                                      ! Month
  SummerDesignDay,                        ! Day Type
  0,                                      ! Daylight Saving Time Indicator
  Enthalpy,                               ! Humidity Indicating Type
  ,                                       ! Humidity Indicating Day Schedule Name
  DefaultMultipliers,                     ! Dry-Bulb Temperature Range Modifier Type
  ,                                       ! Dry-Bulb Temperature Range Modifier Schedule Name
  ASHRAETau,                              ! Solar Model Indicator
  ,                                       ! Beam Solar Day Schedule Name
  ,                                       ! Diffuse Solar Day Schedule Name
  0.42,                                   ! ASHRAE Taub {dimensionless}
  2.176;                                  ! ASHRAE Taud {dimensionless}

OS:ComponentData,
  {ee0092cd-4be9-48db-bb8d-e3bcc6351654}, ! Handle
  Component Data 1,                       ! Name
  {cc00d86a-254d-4f00-80a9-5d0c373e9317}, ! UUID
  {69a7bc61-8ae1-4d78-baaa-bfd5c0f1fd68}, ! Version UUID
  1366307945,                             ! Creation Timestamp
  1366307945,                             ! Version Timestamp
  {cbf5d9bb-2c65-4133-92da-525fa40a37f6}; ! Name of Object 1

