
OS:Version,
  {476ee0aa-b3f9-411c-9a65-19e925403e5b}, ! Handle
  0.9.3;                                  ! Version Identifier

OS:SizingPeriod:DesignDay,
  {c3452fd9-0413-497c-bfdd-d627fee4e9c8}, ! Handle
  Akron Akron Canton Reg Ap Ann Clg 1% Condns DB=>MWB, ! Name
  29.9,                                   ! Maximum Dry-Bulb Temperature {C}
  10.4,                                   ! Daily Dry-Bulb Temperature Range {deltaC}
  22.1,                                   ! Humidity Indicating Conditions at Maximum Dry-Bulb {BasedOnField A3}
  96982,                                  ! Barometric Pressure {Pa}
  4.6,                                    ! Wind Speed {m/s}
  230,                                    ! Wind Direction {deg}
  0,                                      ! Sky Clearness
  0,                                      ! Rain Indicator
  0,                                      ! Snow Indicator
  21,                                     ! Day of Month
  7,                                      ! Month
  SummerDesignDay,                        ! Day Type
  0,                                      ! Daylight Saving Time Indicator
  Wetbulb,                                ! Humidity Indicating Type
  ,                                       ! Humidity Indicating Day Schedule Name
  DefaultMultipliers,                     ! Dry-Bulb Temperature Range Modifier Type
  ,                                       ! Dry-Bulb Temperature Range Modifier Schedule Name
  ASHRAETau,                              ! Solar Model Indicator
  ,                                       ! Beam Solar Day Schedule Name
  ,                                       ! Diffuse Solar Day Schedule Name
  0.464,                                  ! ASHRAE Taub {dimensionless}
  1.994;                                  ! ASHRAE Taud {dimensionless}

OS:ComponentData,
  {85140141-8c92-4b5b-b4ea-1a16b258414c}, ! Handle
  Component Data 1,                       ! Name
  {cd2cffd0-5751-428e-8b08-e9d43942ad28}, ! UUID
  {93b9ac40-9d1f-49f6-b025-3839c780b5f4}, ! Version UUID
  1366309770,                             ! Creation Timestamp
  1366309770,                             ! Version Timestamp
  {c3452fd9-0413-497c-bfdd-d627fee4e9c8}; ! Name of Object 1

