
OS:Version,
  {a701d354-2c34-4047-8b71-599183ed55f9}, ! Handle
  0.9.3;                                  ! Version Identifier

OS:SizingPeriod:DesignDay,
  {4f8ab966-5755-4787-a473-3105e4466cc1}, ! Handle
  KODIAK Ann Clg 1% Condns WB=>MDB,       ! Name
  17.1,                                   ! Maximum Dry-Bulb Temperature {C}
  6.4,                                    ! Daily Dry-Bulb Temperature Range {deltaC}
  14.2,                                   ! Humidity Indicating Conditions at Maximum Dry-Bulb {BasedOnField A3}
  100917,                                 ! Barometric Pressure {Pa}
  5.2,                                    ! Wind Speed {m/s}
  310,                                    ! Wind Direction {deg}
  0,                                      ! Sky Clearness
  0,                                      ! Rain Indicator
  0,                                      ! Snow Indicator
  21,                                     ! Day of Month
  8,                                      ! Month
  SummerDesignDay,                        ! Day Type
  0,                                      ! Daylight Saving Time Indicator
  Wetbulb,                                ! Humidity Indicating Type
  ,                                       ! Humidity Indicating Day Schedule Name
  DefaultMultipliers,                     ! Dry-Bulb Temperature Range Modifier Type
  ,                                       ! Dry-Bulb Temperature Range Modifier Schedule Name
  ASHRAETau,                              ! Solar Model Indicator
  ,                                       ! Beam Solar Day Schedule Name
  ,                                       ! Diffuse Solar Day Schedule Name
  0.36,                                   ! ASHRAE Taub {dimensionless}
  2.361;                                  ! ASHRAE Taud {dimensionless}

OS:ComponentData,
  {b84f2835-ad4e-4c81-bdf5-f9f84b6e73c9}, ! Handle
  Component Data 1,                       ! Name
  {dcd785c3-696c-41de-8eb1-b1d2e954b832}, ! UUID
  {1846e68f-29ea-46b4-9f8b-87756e527e35}, ! Version UUID
  1366305371,                             ! Creation Timestamp
  1366305371,                             ! Version Timestamp
  {4f8ab966-5755-4787-a473-3105e4466cc1}; ! Name of Object 1

