
OS:Version,
  {6ff847de-9f84-4c82-822b-d7ea237587b4}, ! Handle
  0.9.3;                                  ! Version Identifier

OS:SizingPeriod:DesignDay,
  {56371743-afc3-44ad-b195-a38b82ace932}, ! Handle
  Lancaster Gen Wm Fox Field Ann Clg 2% Condns WB=>MDB, ! Name
  33.2,                                   ! Maximum Dry-Bulb Temperature {C}
  16,                                     ! Daily Dry-Bulb Temperature Range {deltaC}
  19.1,                                   ! Humidity Indicating Conditions at Maximum Dry-Bulb {BasedOnField A3}
  93048,                                  ! Barometric Pressure {Pa}
  6.5,                                    ! Wind Speed {m/s}
  240,                                    ! Wind Direction {deg}
  0,                                      ! Sky Clearness
  0,                                      ! Rain Indicator
  0,                                      ! Snow Indicator
  21,                                     ! Day of Month
  7,                                      ! Month
  SummerDesignDay,                        ! Day Type
  0,                                      ! Daylight Saving Time Indicator
  Wetbulb,                                ! Humidity Indicating Type
  ,                                       ! Humidity Indicating Day Schedule Name
  DefaultMultipliers,                     ! Dry-Bulb Temperature Range Modifier Type
  ,                                       ! Dry-Bulb Temperature Range Modifier Schedule Name
  ASHRAETau,                              ! Solar Model Indicator
  ,                                       ! Beam Solar Day Schedule Name
  ,                                       ! Diffuse Solar Day Schedule Name
  0.431,                                  ! ASHRAE Taub {dimensionless}
  2.057;                                  ! ASHRAE Taud {dimensionless}

OS:ComponentData,
  {967b6f41-b31f-43e3-b95d-726144524a7d}, ! Handle
  Component Data 1,                       ! Name
  {80bfbd7b-0626-48d1-ac3c-4eea5c70fcfd}, ! UUID
  {22bf74c1-909f-4b04-b5f8-0532ae85cdfa}, ! Version UUID
  1366306457,                             ! Creation Timestamp
  1366306457,                             ! Version Timestamp
  {56371743-afc3-44ad-b195-a38b82ace932}; ! Name of Object 1

