
OS:Version,
  {99cf9483-7739-46c9-9c89-0fa59dc7c327}, ! Handle
  0.9.3;                                  ! Version Identifier

OS:SizingPeriod:DesignDay,
  {4b78ff3b-0c39-411f-a385-fde7962ad313}, ! Handle
  KALISPELL Ann Clg .4% Condns Enth=>MDB, ! Name
  28,                                     ! Maximum Dry-Bulb Temperature {C}
  17,                                     ! Daily Dry-Bulb Temperature Range {deltaC}
  55700,                                  ! Humidity Indicating Conditions at Maximum Dry-Bulb {BasedOnField A3}
  90926,                                  ! Barometric Pressure {Pa}
  3.6,                                    ! Wind Speed {m/s}
  160,                                    ! Wind Direction {deg}
  0,                                      ! Sky Clearness
  0,                                      ! Rain Indicator
  0,                                      ! Snow Indicator
  21,                                     ! Day of Month
  7,                                      ! Month
  SummerDesignDay,                        ! Day Type
  0,                                      ! Daylight Saving Time Indicator
  Enthalpy,                               ! Humidity Indicating Type
  ,                                       ! Humidity Indicating Day Schedule Name
  DefaultMultipliers,                     ! Dry-Bulb Temperature Range Modifier Type
  ,                                       ! Dry-Bulb Temperature Range Modifier Schedule Name
  ASHRAETau,                              ! Solar Model Indicator
  ,                                       ! Beam Solar Day Schedule Name
  ,                                       ! Diffuse Solar Day Schedule Name
  0.355,                                  ! ASHRAE Taub {dimensionless}
  2.406;                                  ! ASHRAE Taud {dimensionless}

OS:ComponentData,
  {9fe5fe01-dea8-4a72-af33-e7e4788eded0}, ! Handle
  Component Data 1,                       ! Name
  {c753e140-ad5a-47f9-b46b-2445cf38f302}, ! UUID
  {c8542ee8-8f37-45ba-8c01-1c2d85a8d8b8}, ! Version UUID
  1366308809,                             ! Creation Timestamp
  1366308809,                             ! Version Timestamp
  {4b78ff3b-0c39-411f-a385-fde7962ad313}; ! Name of Object 1

