
OS:Version,
  {755a93af-2f82-48bf-982f-dbd79abb6855}, ! Handle
  0.9.3;                                  ! Version Identifier

OS:SizingPeriod:DesignDay,
  {e99e82cb-857c-4fdd-beec-4552e339fb62}, ! Handle
  JACKSON Ann Clg 1% Condns WB=>MDB,      ! Name
  31.6,                                   ! Maximum Dry-Bulb Temperature {C}
  10.7,                                   ! Daily Dry-Bulb Temperature Range {deltaC}
  26,                                     ! Humidity Indicating Conditions at Maximum Dry-Bulb {BasedOnField A3}
  100118,                                 ! Barometric Pressure {Pa}
  3.2,                                    ! Wind Speed {m/s}
  350,                                    ! Wind Direction {deg}
  0,                                      ! Sky Clearness
  0,                                      ! Rain Indicator
  0,                                      ! Snow Indicator
  21,                                     ! Day of Month
  7,                                      ! Month
  SummerDesignDay,                        ! Day Type
  0,                                      ! Daylight Saving Time Indicator
  Wetbulb,                                ! Humidity Indicating Type
  ,                                       ! Humidity Indicating Day Schedule Name
  DefaultMultipliers,                     ! Dry-Bulb Temperature Range Modifier Type
  ,                                       ! Dry-Bulb Temperature Range Modifier Schedule Name
  ASHRAETau,                              ! Solar Model Indicator
  ,                                       ! Beam Solar Day Schedule Name
  ,                                       ! Diffuse Solar Day Schedule Name
  0.534,                                  ! ASHRAE Taub {dimensionless}
  1.869;                                  ! ASHRAE Taud {dimensionless}

OS:ComponentData,
  {070e9797-9efd-4674-a5e6-9962ed902f7c}, ! Handle
  Component Data 1,                       ! Name
  {62e74a48-fa43-4284-b107-dc30d40dfa13}, ! UUID
  {e4a156db-7a93-4681-977e-505cabc15141}, ! Version UUID
  1366308640,                             ! Creation Timestamp
  1366308640,                             ! Version Timestamp
  {e99e82cb-857c-4fdd-beec-4552e339fb62}; ! Name of Object 1

