
OS:Version,
  {594d7e63-dce3-4738-8a8a-1b76aa9da4a8}, ! Handle
  0.9.3;                                  ! Version Identifier

OS:SizingPeriod:DesignDay,
  {6fe5b65d-dc1b-4edb-8ce1-8d032f71517e}, ! Handle
  ELY Ann Clg 1% Condns WB=>MDB,          ! Name
  26.3,                                   ! Maximum Dry-Bulb Temperature {C}
  20.3,                                   ! Daily Dry-Bulb Temperature Range {deltaC}
  15.2,                                   ! Humidity Indicating Conditions at Maximum Dry-Bulb {BasedOnField A3}
  80427,                                  ! Barometric Pressure {Pa}
  5.3,                                    ! Wind Speed {m/s}
  220,                                    ! Wind Direction {deg}
  0,                                      ! Sky Clearness
  0,                                      ! Rain Indicator
  0,                                      ! Snow Indicator
  21,                                     ! Day of Month
  7,                                      ! Month
  SummerDesignDay,                        ! Day Type
  0,                                      ! Daylight Saving Time Indicator
  Wetbulb,                                ! Humidity Indicating Type
  ,                                       ! Humidity Indicating Day Schedule Name
  DefaultMultipliers,                     ! Dry-Bulb Temperature Range Modifier Type
  ,                                       ! Dry-Bulb Temperature Range Modifier Schedule Name
  ASHRAETau,                              ! Solar Model Indicator
  ,                                       ! Beam Solar Day Schedule Name
  ,                                       ! Diffuse Solar Day Schedule Name
  0.442,                                  ! ASHRAE Taub {dimensionless}
  1.871;                                  ! ASHRAE Taud {dimensionless}

OS:ComponentData,
  {ba093444-c50a-4051-b167-c19fcd760632}, ! Handle
  Component Data 1,                       ! Name
  {900e3494-3576-486f-bbe2-296feec78dcc}, ! UUID
  {2eaa0972-f618-4c24-b902-b1754910b404}, ! Version UUID
  1366309483,                             ! Creation Timestamp
  1366309483,                             ! Version Timestamp
  {6fe5b65d-dc1b-4edb-8ce1-8d032f71517e}; ! Name of Object 1

