
OS:Version,
  {18d0537a-dbb0-4e10-8c27-495a92290f4f}, ! Handle
  0.9.3;                                  ! Version Identifier

OS:SizingPeriod:DesignDay,
  {d26af598-87c7-4ba4-b81a-2860d7128267}, ! Handle
  GRAND_RAPIDS Ann Clg .4% Condns WB=>MDB, ! Name
  29.7,                                   ! Maximum Dry-Bulb Temperature {C}
  11.1,                                   ! Daily Dry-Bulb Temperature Range {deltaC}
  24.7,                                   ! Humidity Indicating Conditions at Maximum Dry-Bulb {BasedOnField A3}
  98416,                                  ! Barometric Pressure {Pa}
  5.8,                                    ! Wind Speed {m/s}
  240,                                    ! Wind Direction {deg}
  0,                                      ! Sky Clearness
  0,                                      ! Rain Indicator
  0,                                      ! Snow Indicator
  21,                                     ! Day of Month
  7,                                      ! Month
  SummerDesignDay,                        ! Day Type
  0,                                      ! Daylight Saving Time Indicator
  Wetbulb,                                ! Humidity Indicating Type
  ,                                       ! Humidity Indicating Day Schedule Name
  DefaultMultipliers,                     ! Dry-Bulb Temperature Range Modifier Type
  ,                                       ! Dry-Bulb Temperature Range Modifier Schedule Name
  ASHRAETau,                              ! Solar Model Indicator
  ,                                       ! Beam Solar Day Schedule Name
  ,                                       ! Diffuse Solar Day Schedule Name
  0.424,                                  ! ASHRAE Taub {dimensionless}
  2.173;                                  ! ASHRAE Taud {dimensionless}

OS:ComponentData,
  {42390ae2-6b0d-4029-ac51-a2f9a105d829}, ! Handle
  Component Data 1,                       ! Name
  {e5713dee-6d8f-49ba-a739-af9be5232fae}, ! UUID
  {d304f4d5-f283-415e-b293-ef79ff513ef0}, ! Version UUID
  1366308018,                             ! Creation Timestamp
  1366308018,                             ! Version Timestamp
  {d26af598-87c7-4ba4-b81a-2860d7128267}; ! Name of Object 1

