
OS:Version,
  {f9160f2d-b671-42e9-8739-856e7c42b54a}, ! Handle
  0.9.3;                                  ! Version Identifier

OS:SizingPeriod:DesignDay,
  {23cb78ac-f14b-4469-ad3e-4fd6ee0ec041}, ! Handle
  Chattanooga Lovell Field Ap Ann Htg Wind 99.6% Condns WS=>MCDB, ! Name
  5.3,                                    ! Maximum Dry-Bulb Temperature {C}
  0,                                      ! Daily Dry-Bulb Temperature Range {deltaC}
  5.3,                                    ! Humidity Indicating Conditions at Maximum Dry-Bulb {BasedOnField A3}
  98898,                                  ! Barometric Pressure {Pa}
  9.2,                                    ! Wind Speed {m/s}
  0,                                      ! Wind Direction {deg}
  0,                                      ! Sky Clearness
  0,                                      ! Rain Indicator
  0,                                      ! Snow Indicator
  21,                                     ! Day of Month
  1,                                      ! Month
  WinterDesignDay,                        ! Day Type
  0,                                      ! Daylight Saving Time Indicator
  Wetbulb,                                ! Humidity Indicating Type
  ,                                       ! Humidity Indicating Day Schedule Name
  DefaultMultipliers,                     ! Dry-Bulb Temperature Range Modifier Type
  ,                                       ! Dry-Bulb Temperature Range Modifier Schedule Name
  ASHRAEClearSky;                         ! Solar Model Indicator

OS:ComponentData,
  {0d0e460c-fee6-47c5-9985-6528e9f50dbf}, ! Handle
  Component Data 1,                       ! Name
  {e34bef1b-3f90-44bf-9973-5f42dcb09c95}, ! UUID
  {cde2657c-1437-4d1f-af0c-53bee3a9e995}, ! Version UUID
  1366310488,                             ! Creation Timestamp
  1366310488,                             ! Version Timestamp
  {23cb78ac-f14b-4469-ad3e-4fd6ee0ec041}; ! Name of Object 1

