
OS:Version,
  {b6fe9ad2-d48d-4b24-8e95-d43402a3027d}, ! Handle
  0.9.3;                                  ! Version Identifier

OS:SizingPeriod:DesignDay,
  {4438315e-c32c-4278-8a3b-36d22798fb6e}, ! Handle
  Lancaster Gen Wm Fox Field Ann Clg 1% Condns DP=>MDB, ! Name
  27.3,                                   ! Maximum Dry-Bulb Temperature {C}
  16,                                     ! Daily Dry-Bulb Temperature Range {deltaC}
  14.6,                                   ! Humidity Indicating Conditions at Maximum Dry-Bulb {BasedOnField A3}
  93048,                                  ! Barometric Pressure {Pa}
  6.5,                                    ! Wind Speed {m/s}
  240,                                    ! Wind Direction {deg}
  0,                                      ! Sky Clearness
  0,                                      ! Rain Indicator
  0,                                      ! Snow Indicator
  21,                                     ! Day of Month
  7,                                      ! Month
  SummerDesignDay,                        ! Day Type
  0,                                      ! Daylight Saving Time Indicator
  Dewpoint,                               ! Humidity Indicating Type
  ,                                       ! Humidity Indicating Day Schedule Name
  DefaultMultipliers,                     ! Dry-Bulb Temperature Range Modifier Type
  ,                                       ! Dry-Bulb Temperature Range Modifier Schedule Name
  ASHRAETau,                              ! Solar Model Indicator
  ,                                       ! Beam Solar Day Schedule Name
  ,                                       ! Diffuse Solar Day Schedule Name
  0.431,                                  ! ASHRAE Taub {dimensionless}
  2.057;                                  ! ASHRAE Taud {dimensionless}

OS:ComponentData,
  {f494dcad-d66e-465b-9db3-aa03a0f3852e}, ! Handle
  Component Data 1,                       ! Name
  {bd96fd06-1c41-4117-96d1-585c93707feb}, ! UUID
  {a8003814-52aa-40d8-b507-af6eeb9518fc}, ! Version UUID
  1366306458,                             ! Creation Timestamp
  1366306458,                             ! Version Timestamp
  {4438315e-c32c-4278-8a3b-36d22798fb6e}; ! Name of Object 1

