
OS:Version,
  {d3a99fba-c689-43e5-b609-3c4b50fc3325}, ! Handle
  0.9.3;                                  ! Version Identifier

OS:SizingPeriod:DesignDay,
  {0a284a89-990c-459b-8bc4-a7c5615a9c9e}, ! Handle
  Cape Hatteras Ann Htg Wind 99.6% Condns WS=>MCDB, ! Name
  14.5,                                   ! Maximum Dry-Bulb Temperature {C}
  0,                                      ! Daily Dry-Bulb Temperature Range {deltaC}
  14.5,                                   ! Humidity Indicating Conditions at Maximum Dry-Bulb {BasedOnField A3}
  101289,                                 ! Barometric Pressure {Pa}
  13.9,                                   ! Wind Speed {m/s}
  0,                                      ! Wind Direction {deg}
  0,                                      ! Sky Clearness
  0,                                      ! Rain Indicator
  0,                                      ! Snow Indicator
  21,                                     ! Day of Month
  1,                                      ! Month
  WinterDesignDay,                        ! Day Type
  0,                                      ! Daylight Saving Time Indicator
  Wetbulb,                                ! Humidity Indicating Type
  ,                                       ! Humidity Indicating Day Schedule Name
  DefaultMultipliers,                     ! Dry-Bulb Temperature Range Modifier Type
  ,                                       ! Dry-Bulb Temperature Range Modifier Schedule Name
  ASHRAEClearSky;                         ! Solar Model Indicator

OS:ComponentData,
  {2a7c8ccf-32de-4773-adee-605abe64d7a9}, ! Handle
  Component Data 1,                       ! Name
  {ea12bb5b-606f-4b7f-a6d3-0e94d97389e6}, ! UUID
  {19cf0c8a-9af0-4edc-bb41-4f9daef4dff9}, ! Version UUID
  1366308872,                             ! Creation Timestamp
  1366308872,                             ! Version Timestamp
  {0a284a89-990c-459b-8bc4-a7c5615a9c9e}; ! Name of Object 1

