
OS:Version,
  {0bb87c16-0584-402c-ac32-d2625f9b40e0}, ! Handle
  0.9.3;                                  ! Version Identifier

OS:SizingPeriod:DesignDay,
  {30ce6ef6-1137-4708-be8a-7109cf1d8235}, ! Handle
  Beale Afb Ann Clg 1% Condns DP=>MDB,    ! Name
  26.9,                                   ! Maximum Dry-Bulb Temperature {C}
  16.6,                                   ! Daily Dry-Bulb Temperature Range {deltaC}
  17.3,                                   ! Humidity Indicating Conditions at Maximum Dry-Bulb {BasedOnField A3}
  100869,                                 ! Barometric Pressure {Pa}
  2.4,                                    ! Wind Speed {m/s}
  200,                                    ! Wind Direction {deg}
  0,                                      ! Sky Clearness
  0,                                      ! Rain Indicator
  0,                                      ! Snow Indicator
  21,                                     ! Day of Month
  7,                                      ! Month
  SummerDesignDay,                        ! Day Type
  0,                                      ! Daylight Saving Time Indicator
  Dewpoint,                               ! Humidity Indicating Type
  ,                                       ! Humidity Indicating Day Schedule Name
  DefaultMultipliers,                     ! Dry-Bulb Temperature Range Modifier Type
  ,                                       ! Dry-Bulb Temperature Range Modifier Schedule Name
  ASHRAETau,                              ! Solar Model Indicator
  ,                                       ! Beam Solar Day Schedule Name
  ,                                       ! Diffuse Solar Day Schedule Name
  0.381,                                  ! ASHRAE Taub {dimensionless}
  2.368;                                  ! ASHRAE Taud {dimensionless}

OS:ComponentData,
  {c703a358-232d-4579-a179-7617a5398173}, ! Handle
  Component Data 1,                       ! Name
  {9abd26f8-b16d-46c3-85b7-2992c93858a3}, ! UUID
  {0db9f904-9a5c-42c3-8f14-4773a212e573}, ! Version UUID
  1366306380,                             ! Creation Timestamp
  1366306380,                             ! Version Timestamp
  {30ce6ef6-1137-4708-be8a-7109cf1d8235}; ! Name of Object 1

