
OS:Version,
  {a1c7ddd8-fefb-4656-9aa4-3b70ab9c68ab}, ! Handle
  0.9.3;                                  ! Version Identifier

OS:SizingPeriod:DesignDay,
  {d019d011-57c9-4870-b6aa-d61a7b3d3543}, ! Handle
  CONCORD Ann Clg .4% Condns DB=>MWB,     ! Name
  32.1,                                   ! Maximum Dry-Bulb Temperature {C}
  12.8,                                   ! Daily Dry-Bulb Temperature Range {deltaC}
  21.8,                                   ! Humidity Indicating Conditions at Maximum Dry-Bulb {BasedOnField A3}
  100070,                                 ! Barometric Pressure {Pa}
  4.4,                                    ! Wind Speed {m/s}
  230,                                    ! Wind Direction {deg}
  0,                                      ! Sky Clearness
  0,                                      ! Rain Indicator
  0,                                      ! Snow Indicator
  21,                                     ! Day of Month
  7,                                      ! Month
  SummerDesignDay,                        ! Day Type
  0,                                      ! Daylight Saving Time Indicator
  Wetbulb,                                ! Humidity Indicating Type
  ,                                       ! Humidity Indicating Day Schedule Name
  DefaultMultipliers,                     ! Dry-Bulb Temperature Range Modifier Type
  ,                                       ! Dry-Bulb Temperature Range Modifier Schedule Name
  ASHRAETau,                              ! Solar Model Indicator
  ,                                       ! Beam Solar Day Schedule Name
  ,                                       ! Diffuse Solar Day Schedule Name
  0.459,                                  ! ASHRAE Taub {dimensionless}
  2.014;                                  ! ASHRAE Taud {dimensionless}

OS:ComponentData,
  {07f1e719-24d6-423a-970d-0c9f169f4bc5}, ! Handle
  Component Data 1,                       ! Name
  {191b9430-a530-46dd-921a-b4d16e7ae386}, ! UUID
  {46e95e48-20c4-4d1d-ad62-bb5b6331a27a}, ! Version UUID
  1366309218,                             ! Creation Timestamp
  1366309218,                             ! Version Timestamp
  {d019d011-57c9-4870-b6aa-d61a7b3d3543}; ! Name of Object 1

