
OS:Version,
  {76b72a1c-374b-4c0b-b5d2-924d603c487d}, ! Handle
  0.9.3;                                  ! Version Identifier

OS:SizingPeriod:DesignDay,
  {ff18840c-32ab-4529-af50-0f5c022a57af}, ! Handle
  Crossville Memorial Ap Ann Htg 99.6% Condns DB, ! Name
  -12.6,                                  ! Maximum Dry-Bulb Temperature {C}
  0,                                      ! Daily Dry-Bulb Temperature Range {deltaC}
  -12.6,                                  ! Humidity Indicating Conditions at Maximum Dry-Bulb {BasedOnField A3}
  94674,                                  ! Barometric Pressure {Pa}
  2.4,                                    ! Wind Speed {m/s}
  300,                                    ! Wind Direction {deg}
  0,                                      ! Sky Clearness
  0,                                      ! Rain Indicator
  0,                                      ! Snow Indicator
  21,                                     ! Day of Month
  1,                                      ! Month
  WinterDesignDay,                        ! Day Type
  0,                                      ! Daylight Saving Time Indicator
  Wetbulb,                                ! Humidity Indicating Type
  ,                                       ! Humidity Indicating Day Schedule Name
  DefaultMultipliers,                     ! Dry-Bulb Temperature Range Modifier Type
  ,                                       ! Dry-Bulb Temperature Range Modifier Schedule Name
  ASHRAEClearSky;                         ! Solar Model Indicator

OS:ComponentData,
  {5f2fff32-0bd4-4470-8cd2-54880bacc8d3}, ! Handle
  Component Data 1,                       ! Name
  {9ddb2cb5-8708-4a7b-bdfb-bb5a9708df8a}, ! UUID
  {da7cfbcc-54f5-4c7f-a44c-7fdbc9082ad5}, ! Version UUID
  1366310495,                             ! Creation Timestamp
  1366310495,                             ! Version Timestamp
  {ff18840c-32ab-4529-af50-0f5c022a57af}; ! Name of Object 1

