
OS:Version,
  {94bbc26c-b144-43de-bbe9-fb36cd00eecf}, ! Handle
  0.9.3;                                  ! Version Identifier

OS:SizingPeriod:DesignDay,
  {f2b4d40e-065d-4693-9f41-e6e2227db581}, ! Handle
  Brookings  Awos Ann Htg 99% Condns DB,  ! Name
  -23.1,                                  ! Maximum Dry-Bulb Temperature {C}
  0,                                      ! Daily Dry-Bulb Temperature Range {deltaC}
  -23.1,                                  ! Humidity Indicating Conditions at Maximum Dry-Bulb {BasedOnField A3}
  95438,                                  ! Barometric Pressure {Pa}
  3.3,                                    ! Wind Speed {m/s}
  320,                                    ! Wind Direction {deg}
  0,                                      ! Sky Clearness
  0,                                      ! Rain Indicator
  0,                                      ! Snow Indicator
  21,                                     ! Day of Month
  1,                                      ! Month
  WinterDesignDay,                        ! Day Type
  0,                                      ! Daylight Saving Time Indicator
  Wetbulb,                                ! Humidity Indicating Type
  ,                                       ! Humidity Indicating Day Schedule Name
  DefaultMultipliers,                     ! Dry-Bulb Temperature Range Modifier Type
  ,                                       ! Dry-Bulb Temperature Range Modifier Schedule Name
  ASHRAEClearSky;                         ! Solar Model Indicator

OS:ComponentData,
  {36b26d66-672e-4870-99ad-a93fd209df70}, ! Handle
  Component Data 1,                       ! Name
  {04fda812-bbf8-4ce5-9007-f98f3bf161a5}, ! UUID
  {b1a8ad01-6378-4b3d-baee-c9f0d0aefab2}, ! Version UUID
  1366310388,                             ! Creation Timestamp
  1366310388,                             ! Version Timestamp
  {f2b4d40e-065d-4693-9f41-e6e2227db581}; ! Name of Object 1

