
OS:Version,
  {cea69f8c-3b0d-49b8-ad38-23f3c1054713}, ! Handle
  0.9.3;                                  ! Version Identifier

OS:SizingPeriod:DesignDay,
  {628645dc-660e-4e53-96c5-366d7771406d}, ! Handle
  Batesville  Awos Ann Htg 99.6% Condns DB, ! Name
  -9,                                     ! Maximum Dry-Bulb Temperature {C}
  0,                                      ! Daily Dry-Bulb Temperature Range {deltaC}
  -9,                                     ! Humidity Indicating Conditions at Maximum Dry-Bulb {BasedOnField A3}
  99643,                                  ! Barometric Pressure {Pa}
  2.1,                                    ! Wind Speed {m/s}
  330,                                    ! Wind Direction {deg}
  0,                                      ! Sky Clearness
  0,                                      ! Rain Indicator
  0,                                      ! Snow Indicator
  21,                                     ! Day of Month
  1,                                      ! Month
  WinterDesignDay,                        ! Day Type
  0,                                      ! Daylight Saving Time Indicator
  Wetbulb,                                ! Humidity Indicating Type
  ,                                       ! Humidity Indicating Day Schedule Name
  DefaultMultipliers,                     ! Dry-Bulb Temperature Range Modifier Type
  ,                                       ! Dry-Bulb Temperature Range Modifier Schedule Name
  ASHRAEClearSky;                         ! Solar Model Indicator

OS:ComponentData,
  {004156ff-9db4-470e-af31-b04b6c6809c4}, ! Handle
  Component Data 1,                       ! Name
  {73c640ca-39ef-4521-ae6b-875aca141252}, ! UUID
  {b30fd3cb-4775-41ee-bfa7-cd93c0e1305e}, ! Version UUID
  1366306051,                             ! Creation Timestamp
  1366306051,                             ! Version Timestamp
  {628645dc-660e-4e53-96c5-366d7771406d}; ! Name of Object 1

