
OS:Version,
  {c1d2fc35-d417-4189-8fa9-34c6eefbcdcc}, ! Handle
  0.9.3;                                  ! Version Identifier

OS:SizingPeriod:DesignDay,
  {f4d464d3-8535-49e8-aa51-b943b05ae159}, ! Handle
  ALLENTOWN Ann Htg Wind 99.6% Condns WS=>MCDB, ! Name
  -2.2,                                   ! Maximum Dry-Bulb Temperature {C}
  0,                                      ! Daily Dry-Bulb Temperature Range {deltaC}
  -2.2,                                   ! Humidity Indicating Conditions at Maximum Dry-Bulb {BasedOnField A3}
  99927,                                  ! Barometric Pressure {Pa}
  12.6,                                   ! Wind Speed {m/s}
  330,                                    ! Wind Direction {deg}
  0,                                      ! Sky Clearness
  0,                                      ! Rain Indicator
  0,                                      ! Snow Indicator
  21,                                     ! Day of Month
  1,                                      ! Month
  WinterDesignDay,                        ! Day Type
  0,                                      ! Daylight Saving Time Indicator
  Wetbulb,                                ! Humidity Indicating Type
  ,                                       ! Humidity Indicating Day Schedule Name
  DefaultMultipliers,                     ! Dry-Bulb Temperature Range Modifier Type
  ,                                       ! Dry-Bulb Temperature Range Modifier Schedule Name
  ASHRAEClearSky;                         ! Solar Model Indicator

OS:ComponentData,
  {ad978915-1f89-4db6-9e64-f31d13cf7bbb}, ! Handle
  Component Data 1,                       ! Name
  {211d9d65-a1a5-4784-95ac-8a09d474ee7a}, ! UUID
  {f30e0acf-ec0e-4c6f-bb67-e64df9597410}, ! Version UUID
  1366310135,                             ! Creation Timestamp
  1366310135,                             ! Version Timestamp
  {f4d464d3-8535-49e8-aa51-b943b05ae159}; ! Name of Object 1

