
OS:Version,
  {0e99341c-6444-48a7-a1cf-5b32c17a12f8}, ! Handle
  0.9.3;                                  ! Version Identifier

OS:SizingPeriod:DesignDay,
  {4b7a910d-e9f7-4644-9f90-2d6584f9ad1f}, ! Handle
  Anderson County Ap Ann Clg 1% Condns DB=>MWB, ! Name
  33.7,                                   ! Maximum Dry-Bulb Temperature {C}
  10.9,                                   ! Daily Dry-Bulb Temperature Range {deltaC}
  23.5,                                   ! Humidity Indicating Conditions at Maximum Dry-Bulb {BasedOnField A3}
  98569,                                  ! Barometric Pressure {Pa}
  3.8,                                    ! Wind Speed {m/s}
  250,                                    ! Wind Direction {deg}
  0,                                      ! Sky Clearness
  0,                                      ! Rain Indicator
  0,                                      ! Snow Indicator
  21,                                     ! Day of Month
  7,                                      ! Month
  SummerDesignDay,                        ! Day Type
  0,                                      ! Daylight Saving Time Indicator
  Wetbulb,                                ! Humidity Indicating Type
  ,                                       ! Humidity Indicating Day Schedule Name
  DefaultMultipliers,                     ! Dry-Bulb Temperature Range Modifier Type
  ,                                       ! Dry-Bulb Temperature Range Modifier Schedule Name
  ASHRAETau,                              ! Solar Model Indicator
  ,                                       ! Beam Solar Day Schedule Name
  ,                                       ! Diffuse Solar Day Schedule Name
  0.545,                                  ! ASHRAE Taub {dimensionless}
  1.797;                                  ! ASHRAE Taud {dimensionless}

OS:ComponentData,
  {c97a40fb-47f1-406a-a9ab-4655508da229}, ! Handle
  Component Data 1,                       ! Name
  {ef0609af-4ea4-4391-8a24-3b64e09aca5d}, ! UUID
  {3e65c1d7-5a88-44d6-b92a-58c4bbbf1029}, ! Version UUID
  1366310312,                             ! Creation Timestamp
  1366310312,                             ! Version Timestamp
  {4b7a910d-e9f7-4644-9f90-2d6584f9ad1f}; ! Name of Object 1

