
OS:Version,
  {d5ce870d-dd0f-4346-918a-36de5a47adf9}, ! Handle
  0.9.3;                                  ! Version Identifier

OS:SizingPeriod:DesignDay,
  {cad6d1bb-2cf5-4012-b407-61f4179612dd}, ! Handle
  Bakersfield Meadows Field Ann Clg .4% Condns WB=>MDB, ! Name
  36.2,                                   ! Maximum Dry-Bulb Temperature {C}
  14.9,                                   ! Daily Dry-Bulb Temperature Range {deltaC}
  23.3,                                   ! Humidity Indicating Conditions at Maximum Dry-Bulb {BasedOnField A3}
  99548,                                  ! Barometric Pressure {Pa}
  5.3,                                    ! Wind Speed {m/s}
  300,                                    ! Wind Direction {deg}
  0,                                      ! Sky Clearness
  0,                                      ! Rain Indicator
  0,                                      ! Snow Indicator
  21,                                     ! Day of Month
  7,                                      ! Month
  SummerDesignDay,                        ! Day Type
  0,                                      ! Daylight Saving Time Indicator
  Wetbulb,                                ! Humidity Indicating Type
  ,                                       ! Humidity Indicating Day Schedule Name
  DefaultMultipliers,                     ! Dry-Bulb Temperature Range Modifier Type
  ,                                       ! Dry-Bulb Temperature Range Modifier Schedule Name
  ASHRAETau,                              ! Solar Model Indicator
  ,                                       ! Beam Solar Day Schedule Name
  ,                                       ! Diffuse Solar Day Schedule Name
  0.438,                                  ! ASHRAE Taub {dimensionless}
  2.106;                                  ! ASHRAE Taud {dimensionless}

OS:ComponentData,
  {07a2f62e-078b-494f-a978-38e129ab1022}, ! Handle
  Component Data 1,                       ! Name
  {8ddf7205-f801-4cd2-a226-d0af9562c81f}, ! UUID
  {66a130a0-5998-43c5-bca5-5e821a5f87c1}, ! Version UUID
  1366306365,                             ! Creation Timestamp
  1366306365,                             ! Version Timestamp
  {cad6d1bb-2cf5-4012-b407-61f4179612dd}; ! Name of Object 1

