
OS:Version,
  {a53382f7-4b26-46b6-98c0-e452855df45b}, ! Handle
  0.9.3;                                  ! Version Identifier

OS:SizingPeriod:DesignDay,
  {04b05cbe-cc7e-4c45-a3f8-18cad8a28340}, ! Handle
  Grand Rapids Kent County Int Ann Htg Wind 99.6% Condns WS=>MCDB, ! Name
  -2,                                     ! Maximum Dry-Bulb Temperature {C}
  0,                                      ! Daily Dry-Bulb Temperature Range {deltaC}
  -2,                                     ! Humidity Indicating Conditions at Maximum Dry-Bulb {BasedOnField A3}
  98451,                                  ! Barometric Pressure {Pa}
  12.7,                                   ! Wind Speed {m/s}
  200,                                    ! Wind Direction {deg}
  0,                                      ! Sky Clearness
  0,                                      ! Rain Indicator
  0,                                      ! Snow Indicator
  21,                                     ! Day of Month
  1,                                      ! Month
  WinterDesignDay,                        ! Day Type
  0,                                      ! Daylight Saving Time Indicator
  Wetbulb,                                ! Humidity Indicating Type
  ,                                       ! Humidity Indicating Day Schedule Name
  DefaultMultipliers,                     ! Dry-Bulb Temperature Range Modifier Type
  ,                                       ! Dry-Bulb Temperature Range Modifier Schedule Name
  ASHRAEClearSky;                         ! Solar Model Indicator

OS:ComponentData,
  {2f966672-7dd4-4bf1-93a6-7510f6f5ec52}, ! Handle
  Component Data 1,                       ! Name
  {d68c4ef5-15a1-446f-8c04-5df003938954}, ! UUID
  {662749f4-2d8b-4789-a96e-f880e7dbf49d}, ! Version UUID
  1366308013,                             ! Creation Timestamp
  1366308013,                             ! Version Timestamp
  {04b05cbe-cc7e-4c45-a3f8-18cad8a28340}; ! Name of Object 1

